*SPEF "1.0"
*DESIGN "tau2020v1"
*PROGRAM "RandomNets"
*T_UNIT 1 NS
*C_UNIT 1 FF
*R_UNIT 1 OHM

*PORTS 


*D_NET net_0 188.8
*CONN
*I I1:ZN O
*I I2:A I
*CAP
1 I1:ZN 94.4
2 I2:A 94.4
*RES
2 I1:ZN I2:A 2638
*END

*D_NET net_1 268
*CONN
*I I3:ZN O
*I I4:A I
*CAP
1 I3:ZN 134
2 I4:A 134
*RES
2 I3:ZN I4:A 13650
*END

*D_NET net_10 108.4
*CONN
*I I21:ZN O
*I I22:A I
*CAP
1 I21:ZN 54.2
2 I22:A 54.2
*RES
2 I21:ZN I22:A 1637
*END

*D_NET net_11 127.8
*CONN
*I I23:Z O
*I I24:A I
*CAP
1 I23:Z 63.9
2 I24:A 63.9
*RES
2 I23:Z I24:A 1871.5
*END

*D_NET net_12 241
*CONN
*I I25:ZN O
*I I26:A I
*CAP
1 I25:ZN 120.5
2 I26:A 120.5
*RES
2 I25:ZN I26:A 1493
*END

*D_NET net_13 360.8
*CONN
*I I27:Z O
*I I28:A I
*CAP
1 I27:Z 180.4
2 I28:A 180.4
*RES
2 I27:Z I28:A 4788
*END

*D_NET net_14 150
*CONN
*I I29:Z O
*I I30:A I
*CAP
1 I29:Z 75
2 I30:A 75
*RES
2 I29:Z I30:A 2161
*END

*D_NET net_15 196.4
*CONN
*I I31:ZN O
*I I32:A I
*CAP
1 I31:ZN 98.2
2 I32:A 98.2
*RES
2 I31:ZN I32:A 2729
*END

*D_NET net_16 304.4
*CONN
*I I33:Z O
*I I34:A I
*CAP
1 I33:Z 152.2
2 I34:A 152.2
*RES
2 I33:Z I34:A 1812
*END

*D_NET net_17 402
*CONN
*I I35:ZN O
*I I36:A I
*CAP
1 I35:ZN 201
2 I36:A 201
*RES
2 I35:ZN I36:A 371.4
*END

*D_NET net_18 220.2
*CONN
*I I37:ZN O
*I I38:A I
*CAP
1 I37:ZN 110.1
2 I38:A 110.1
*RES
2 I37:ZN I38:A 22260
*END

*D_NET net_19 124.6
*CONN
*I I39:ZN O
*I I40:A I
*CAP
1 I39:ZN 62.3
2 I40:A 62.3
*RES
2 I39:ZN I40:A 6500
*END

*D_NET net_2 64
*CONN
*I I5:ZN O
*I I6:A I
*CAP
1 I5:ZN 32
2 I6:A 32
*RES
2 I5:ZN I6:A 608
*END

*D_NET net_20 112
*CONN
*I I41:Z O
*I I42:A I
*CAP
1 I41:Z 56
2 I42:A 56
*RES
2 I41:Z I42:A 11440
*END

*D_NET net_21 721.5
*CONN
*I I43:ZN O
*I I44:A I
*CAP
1 I43:ZN 360.75
2 I44:A 360.75
*RES
2 I43:ZN I44:A 436.3
*END

*D_NET net_22 273.75
*CONN
*I I45:ZN O
*I I46:A I
*CAP
1 I45:ZN 136.875
2 I46:A 136.875
*RES
2 I45:ZN I46:A 182700
*END

*D_NET net_23 88
*CONN
*I I47:ZN O
*I I48:A I
*CAP
1 I47:ZN 44
2 I48:A 44
*RES
2 I47:ZN I48:A 728
*END

*D_NET net_24 161.4
*CONN
*I I49:ZN O
*I I50:A I
*CAP
1 I49:ZN 80.7
2 I50:A 80.7
*RES
2 I49:ZN I50:A 8340
*END

*D_NET net_25 193
*CONN
*I I51:ZN O
*I I52:A I
*CAP
1 I51:ZN 96.5
2 I52:A 96.5
*RES
2 I51:ZN I52:A 19520
*END

*D_NET net_26 181.5
*CONN
*I I53:ZN O
*I I54:A I
*CAP
1 I53:ZN 90.75
2 I54:A 90.75
*RES
2 I53:ZN I54:A 121200
*END

*D_NET net_27 91.4
*CONN
*I I55:Z O
*I I56:A I
*CAP
1 I55:Z 45.7
2 I56:A 45.7
*RES
2 I55:Z I56:A 4830
*END

*D_NET net_28 8
*CONN
*I I57:ZN O
*I I58:A I
*CAP
1 I57:ZN 4
2 I58:A 4
*RES
2 I57:ZN I58:A 670
*END

*D_NET net_29 75.2
*CONN
*I I59:ZN O
*I I60:A I
*CAP
1 I59:ZN 37.6
2 I60:A 37.6
*RES
2 I59:ZN I60:A 4030
*END

*D_NET net_3 111.6
*CONN
*I I7:ZN O
*I I8:A I
*CAP
1 I7:ZN 55.8
2 I8:A 55.8
*RES
2 I7:ZN I8:A 848
*END

*D_NET net_30 195.9
*CONN
*I I61:ZN O
*I I62:A I
*CAP
1 I61:ZN 97.95
2 I62:A 97.95
*RES
2 I61:ZN I62:A 130800
*END

*D_NET net_31 78
*CONN
*I I63:ZN O
*I I64:A I
*CAP
1 I63:ZN 39
2 I64:A 39
*RES
2 I63:ZN I64:A 1261
*END

*D_NET net_32 221.2
*CONN
*I I65:ZN O
*I I66:A I
*CAP
1 I65:ZN 110.6
2 I66:A 110.6
*RES
2 I65:ZN I66:A 11310
*END

*D_NET net_33 372.8
*CONN
*I I67:ZN O
*I I68:A I
*CAP
1 I67:ZN 186.4
2 I68:A 186.4
*RES
2 I67:ZN I68:A 4934
*END

*D_NET net_34 320.4
*CONN
*I I69:ZN O
*I I70:A I
*CAP
1 I69:ZN 160.2
2 I70:A 160.2
*RES
2 I69:ZN I70:A 4279
*END

*D_NET net_35 153
*CONN
*I I71:ZN O
*I I72:A I
*CAP
1 I71:ZN 76.5
2 I72:A 76.5
*RES
2 I71:ZN I72:A 1055
*END

*D_NET net_36 248.5
*CONN
*I I73:ZN O
*I I74:A I
*CAP
1 I73:ZN 124.25
2 I74:A 124.25
*RES
2 I73:ZN I74:A 341.7
*END

*D_NET net_37 239.8
*CONN
*I I75:Z O
*I I76:A I
*CAP
1 I75:Z 119.9
2 I76:A 119.9
*RES
2 I75:Z I76:A 12240
*END

*D_NET net_38 30.2
*CONN
*I I77:ZN O
*I I78:A I
*CAP
1 I77:ZN 15.1
2 I78:A 15.1
*RES
2 I77:ZN I78:A 439
*END

*D_NET net_39 170
*CONN
*I I79:ZN O
*I I80:A I
*CAP
1 I79:ZN 85
2 I80:A 85
*RES
2 I79:ZN I80:A 8760
*END

*D_NET net_4 264.2
*CONN
*I I10:A I
*I I9:ZN O
*CAP
1 I9:ZN 132.1
2 I10:A 132.1
*RES
2 I9:ZN I10:A 26640
*END

*D_NET net_40 293.4
*CONN
*I I81:Z O
*I I82:A I
*CAP
1 I81:Z 146.7
2 I82:A 146.7
*RES
2 I81:Z I82:A 195800
*END

*D_NET net_41 182.4
*CONN
*I I83:Z O
*I I84:A I
*CAP
1 I83:Z 91.2
2 I84:A 91.2
*RES
2 I83:Z I84:A 2566
*END

*D_NET net_42 292.2
*CONN
*I I85:ZN O
*I I86:A I
*CAP
1 I85:ZN 146.1
2 I86:A 146.1
*RES
2 I85:ZN I86:A 1749
*END

*D_NET net_43 87.4
*CONN
*I I87:Z O
*I I88:A I
*CAP
1 I87:Z 43.7
2 I88:A 43.7
*RES
2 I87:Z I88:A 1374.5
*END

*D_NET net_44 80.2
*CONN
*I I89:ZN O
*I I90:A I
*CAP
1 I89:ZN 40.1
2 I90:A 40.1
*RES
2 I89:ZN I90:A 1280.5
*END

*D_NET net_45 101
*CONN
*I I91:ZN O
*I I92:A I
*CAP
1 I91:ZN 50.5
2 I92:A 50.5
*RES
2 I91:ZN I92:A 10320
*END

*D_NET net_46 25.8
*CONN
*I I93:ZN O
*I I94:A I
*CAP
1 I93:ZN 12.9
2 I94:A 12.9
*RES
2 I93:ZN I94:A 1540
*END

*D_NET net_47 268.65
*CONN
*I I95:Z O
*I I96:A I
*CAP
1 I95:Z 134.325
2 I96:A 134.325
*RES
2 I95:Z I96:A 179300
*END

*D_NET net_48 234
*CONN
*I I97:Z O
*I I98:A I
*CAP
1 I97:Z 117
2 I98:A 117
*RES
2 I97:Z I98:A 3211
*END

*D_NET net_49 298
*CONN
*I I100:A I
*I I99:Z O
*CAP
1 I99:Z 149
2 I100:A 149
*RES
2 I99:Z I100:A 30040
*END

*D_NET net_5 139.5
*CONN
*I I11:ZN O
*I I12:A I
*CAP
1 I11:ZN 69.75
2 I12:A 69.75
*RES
2 I11:ZN I12:A 318.9
*END

*D_NET net_50 80.6
*CONN
*I I101:ZN O
*I I102:A I
*CAP
1 I101:ZN 40.3
2 I102:A 40.3
*RES
2 I101:ZN I102:A 4280
*END

*D_NET net_51 297.2
*CONN
*I I103:Z O
*I I104:A I
*CAP
1 I103:Z 148.6
2 I104:A 148.6
*RES
2 I103:Z I104:A 15120
*END

*D_NET net_52 309.4
*CONN
*I I105:ZN O
*I I106:A I
*CAP
1 I105:ZN 154.7
2 I106:A 154.7
*RES
2 I105:ZN I106:A 1835
*END

*D_NET net_53 115.2
*CONN
*I I107:ZN O
*I I108:A I
*CAP
1 I107:ZN 57.6
2 I108:A 57.6
*RES
2 I107:ZN I108:A 1726
*END

*D_NET net_54 315.5
*CONN
*I I109:ZN O
*I I110:A I
*CAP
1 I109:ZN 157.75
2 I110:A 157.75
*RES
2 I109:ZN I110:A 354.1
*END

*D_NET net_55 13.6
*CONN
*I I111:Z O
*I I112:A I
*CAP
1 I111:Z 6.8
2 I112:A 6.8
*RES
2 I111:Z I112:A 452
*END

*D_NET net_56 363.2
*CONN
*I I113:Z O
*I I114:A I
*CAP
1 I113:Z 181.6
2 I114:A 181.6
*RES
2 I113:Z I114:A 2106
*END

*D_NET net_57 179.6
*CONN
*I I115:ZN O
*I I116:A I
*CAP
1 I115:ZN 89.8
2 I116:A 89.8
*RES
2 I115:ZN I116:A 9240
*END

*D_NET net_58 120.6
*CONN
*I I117:Z O
*I I118:A I
*CAP
1 I117:Z 60.3
2 I118:A 60.3
*RES
2 I117:Z I118:A 80600
*END

*D_NET net_59 349
*CONN
*I I119:Z O
*I I120:A I
*CAP
1 I119:Z 174.5
2 I120:A 174.5
*RES
2 I119:Z I120:A 4644.5
*END

*D_NET net_6 147.6
*CONN
*I I13:ZN O
*I I14:A I
*CAP
1 I13:ZN 73.8
2 I14:A 73.8
*RES
2 I13:ZN I14:A 7630
*END

*D_NET net_60 170.4
*CONN
*I I121:ZN O
*I I122:A I
*CAP
1 I121:ZN 85.2
2 I122:A 85.2
*RES
2 I121:ZN I122:A 8770
*END

*D_NET net_61 184
*CONN
*I I123:ZN O
*I I124:A I
*CAP
1 I123:ZN 92
2 I124:A 92
*RES
2 I123:ZN I124:A 2586
*END

*D_NET net_62 17.4
*CONN
*I I125:ZN O
*I I126:A I
*CAP
1 I125:ZN 8.7
2 I126:A 8.7
*RES
2 I125:ZN I126:A 503.5
*END

*D_NET net_63 231.6
*CONN
*I I127:ZN O
*I I128:A I
*CAP
1 I127:ZN 115.8
2 I128:A 115.8
*RES
2 I127:ZN I128:A 3169
*END

*D_NET net_64 345.6
*CONN
*I I129:ZN O
*I I130:A I
*CAP
1 I129:ZN 172.8
2 I130:A 172.8
*RES
2 I129:ZN I130:A 34800
*END

*D_NET net_65 36.6
*CONN
*I I131:ZN O
*I I132:A I
*CAP
1 I131:ZN 18.3
2 I132:A 18.3
*RES
2 I131:ZN I132:A 731.5
*END

*D_NET net_66 51.6
*CONN
*I I133:ZN O
*I I134:A I
*CAP
1 I133:ZN 25.8
2 I134:A 25.8
*RES
2 I133:ZN I134:A 5400
*END

*D_NET net_67 57.45
*CONN
*I I135:Z O
*I I136:A I
*CAP
1 I135:Z 28.725
2 I136:A 28.725
*RES
2 I135:Z I136:A 38500
*END

*D_NET net_68 315.8
*CONN
*I I137:Z O
*I I138:A I
*CAP
1 I137:Z 157.9
2 I138:A 157.9
*RES
2 I137:Z I138:A 31800
*END

*D_NET net_69 72.2
*CONN
*I I139:ZN O
*I I140:A I
*CAP
1 I139:ZN 36.1
2 I140:A 36.1
*RES
2 I139:ZN I140:A 7460
*END

*D_NET net_7 24.8
*CONN
*I I15:ZN O
*I I16:A I
*CAP
1 I15:ZN 12.4
2 I16:A 12.4
*RES
2 I15:ZN I16:A 412
*END

*D_NET net_70 165.8
*CONN
*I I141:Z O
*I I142:A I
*CAP
1 I141:Z 82.9
2 I142:A 82.9
*RES
2 I141:Z I142:A 2346.5
*END

*D_NET net_71 0.8
*CONN
*I I143:Z O
*I I144:A I
*CAP
1 I143:Z 0.4
2 I144:A 0.4
*RES
2 I143:Z I144:A 300
*END

*D_NET net_72 217.4
*CONN
*I I145:Z O
*I I146:A I
*CAP
1 I145:Z 108.7
2 I146:A 108.7
*RES
2 I145:Z I146:A 11140
*END

*D_NET net_73 127
*CONN
*I I147:Z O
*I I148:A I
*CAP
1 I147:Z 63.5
2 I148:A 63.5
*RES
2 I147:Z I148:A 12940
*END

*D_NET net_74 49.2
*CONN
*I I149:ZN O
*I I150:A I
*CAP
1 I149:ZN 24.6
2 I150:A 24.6
*RES
2 I149:ZN I150:A 5160
*END

*D_NET net_75 279.2
*CONN
*I I151:Z O
*I I152:A I
*CAP
1 I151:Z 139.6
2 I152:A 139.6
*RES
2 I151:Z I152:A 28160
*END

*D_NET net_76 72.2
*CONN
*I I153:ZN O
*I I154:A I
*CAP
1 I153:ZN 36.1
2 I154:A 36.1
*RES
2 I153:ZN I154:A 649
*END

*D_NET net_77 144.9
*CONN
*I I155:ZN O
*I I156:A I
*CAP
1 I155:ZN 72.45
2 I156:A 72.45
*RES
2 I155:ZN I156:A 96800
*END

*D_NET net_78 275.7
*CONN
*I I157:ZN O
*I I158:A I
*CAP
1 I157:ZN 137.85
2 I158:A 137.85
*RES
2 I157:ZN I158:A 184000
*END

*D_NET net_79 229.5
*CONN
*I I159:ZN O
*I I160:A I
*CAP
1 I159:ZN 114.75
2 I160:A 114.75
*RES
2 I159:ZN I160:A 337.9
*END

*D_NET net_8 387.6
*CONN
*I I17:ZN O
*I I18:A I
*CAP
1 I17:ZN 193.8
2 I18:A 193.8
*RES
2 I17:ZN I18:A 5123
*END

*D_NET net_80 589.5
*CONN
*I I161:Z O
*I I162:A I
*CAP
1 I161:Z 294.75
2 I162:A 294.75
*RES
2 I161:Z I162:A 408.9
*END

*D_NET net_81 294.6
*CONN
*I I163:Z O
*I I164:A I
*CAP
1 I163:Z 147.3
2 I164:A 147.3
*RES
2 I163:Z I164:A 3968.5
*END

*D_NET net_82 39.2
*CONN
*I I165:Z O
*I I166:A I
*CAP
1 I165:Z 19.6
2 I166:A 19.6
*RES
2 I165:Z I166:A 486
*END

*D_NET net_83 145.4
*CONN
*I I167:ZN O
*I I168:A I
*CAP
1 I167:ZN 72.7
2 I168:A 72.7
*RES
2 I167:ZN I168:A 7520
*END

*D_NET net_84 638.5
*CONN
*I I169:ZN O
*I I170:A I
*CAP
1 I169:ZN 319.25
2 I170:A 319.25
*RES
2 I169:ZN I170:A 419.7
*END

*D_NET net_85 114.4
*CONN
*I I171:ZN O
*I I172:A I
*CAP
1 I171:ZN 57.2
2 I172:A 57.2
*RES
2 I171:ZN I172:A 5990
*END

*D_NET net_86 274.95
*CONN
*I I173:Z O
*I I174:A I
*CAP
1 I173:Z 137.475
2 I174:A 137.475
*RES
2 I173:Z I174:A 183500
*END

*D_NET net_87 113.2
*CONN
*I I175:Z O
*I I176:A I
*CAP
1 I175:Z 56.6
2 I176:A 56.6
*RES
2 I175:Z I176:A 1701
*END

*D_NET net_88 185.8
*CONN
*I I177:ZN O
*I I178:A I
*CAP
1 I177:ZN 92.9
2 I178:A 92.9
*RES
2 I177:ZN I178:A 2596.5
*END

*D_NET net_89 266.4
*CONN
*I I179:ZN O
*I I180:A I
*CAP
1 I179:ZN 133.2
2 I180:A 133.2
*RES
2 I179:ZN I180:A 3608
*END

*D_NET net_9 128.4
*CONN
*I I19:ZN O
*I I20:A I
*CAP
1 I19:ZN 64.2
2 I20:A 64.2
*RES
2 I19:ZN I20:A 1887
*END

*D_NET net_90 219.4
*CONN
*I I181:ZN O
*I I182:A I
*CAP
1 I181:ZN 109.7
2 I182:A 109.7
*RES
2 I181:ZN I182:A 3016.5
*END

*D_NET net_91 370.8
*CONN
*I I183:ZN O
*I I184:A I
*CAP
1 I183:ZN 185.4
2 I184:A 185.4
*RES
2 I183:ZN I184:A 4917
*END

*D_NET net_92 268.8
*CONN
*I I185:ZN O
*I I186:A I
*CAP
1 I185:ZN 134.4
2 I186:A 134.4
*RES
2 I185:ZN I186:A 3646
*END

*D_NET net_93 173.4
*CONN
*I I187:Z O
*I I188:A I
*CAP
1 I187:Z 86.7
2 I188:A 86.7
*RES
2 I187:Z I188:A 17580
*END

*D_NET net_94 292.6
*CONN
*I I189:Z O
*I I190:A I
*CAP
1 I189:Z 146.3
2 I190:A 146.3
*RES
2 I189:Z I190:A 29500
*END

*D_NET net_95 46
*CONN
*I I191:ZN O
*I I192:A I
*CAP
1 I191:ZN 23
2 I192:A 23
*RES
2 I191:ZN I192:A 2550
*END

*D_NET net_96 170.4
*CONN
*I I193:ZN O
*I I194:A I
*CAP
1 I193:ZN 85.2
2 I194:A 85.2
*RES
2 I193:ZN I194:A 2416
*END

*D_NET net_97 95.2
*CONN
*I I195:Z O
*I I196:A I
*CAP
1 I195:Z 47.6
2 I196:A 47.6
*RES
2 I195:Z I196:A 766
*END

*D_NET net_98 166.8
*CONN
*I I197:ZN O
*I I198:A I
*CAP
1 I197:ZN 83.4
2 I198:A 83.4
*RES
2 I197:ZN I198:A 1122
*END

*D_NET net_99 54.8
*CONN
*I I199:ZN O
*I I200:A I
*CAP
1 I199:ZN 27.4
2 I200:A 27.4
*RES
2 I199:ZN I200:A 963
*END
