*SPEF "1.0"
*DESIGN "tau2020_asu"
*PROGRAM "RandomNets"
*T_UNIT 1 NS
*C_UNIT 1 FF
*R_UNIT 1 OHM

*PORTS 


*D_NET net_0 89.3
*CONN
*I I1:Y O
*I I2:A I
*CAP
1 I1:Y 44.65
2 I2:A 44.65
*RES
2 I1:Y I2:A 1390.25
*END

*D_NET net_1 20.2188
*CONN
*I I3:Y O
*I I4:A I
*CAP
1 I3:Y 10.1094
2 I4:A 10.1094
*RES
2 I3:Y I4:A 295.044
*END

*D_NET net_2 153.8
*CONN
*I I5:Y O
*I I6:A I
*CAP
1 I5:Y 76.9
2 I6:A 76.9
*RES
2 I5:Y I6:A 1057
*END

*D_NET net_3 53.4
*CONN
*I I7:Y O
*I I8:A I
*CAP
1 I7:Y 26.7
2 I8:A 26.7
*RES
2 I7:Y I8:A 2920
*END

*D_NET net_4 75.6
*CONN
*I I10:A I
*I I9:Y O
*CAP
1 I9:Y 37.8
2 I10:A 37.8
*RES
2 I9:Y I10:A 4030
*END

*D_NET net_5 14.35
*CONN
*I I11:Y O
*I I12:A I
*CAP
1 I11:Y 7.175
2 I12:A 7.175
*RES
2 I11:Y I12:A 977.5
*END

*D_NET net_6 85.2
*CONN
*I I13:Y O
*I I14:A I
*CAP
1 I13:Y 42.6
2 I14:A 42.6
*RES
2 I13:Y I14:A 1339
*END

*D_NET net_7 114.6
*CONN
*I I15:Y O
*I I16:A I
*CAP
1 I15:Y 57.3
2 I16:A 57.3
*RES
2 I15:Y I16:A 1714.5
*END

*D_NET net_8 10.6
*CONN
*I I17:Y O
*I I18:A I
*CAP
1 I17:Y 5.3
2 I18:A 5.3
*RES
2 I17:Y I18:A 343
*END

*D_NET net_9 19.5
*CONN
*I I19:Y O
*I I20:A I
*CAP
1 I19:Y 9.75
2 I20:A 9.75
*RES
2 I19:Y I20:A 295.9
*END
