*SPEF 1.0
*Design tau2020v1
*PROGRAM RandomNets
*T_UNIT 1n
*C_UNIT 1f
*R_UNIT 1

*PORTS 


*D_NET net_0 24.6697
*CONN
*I I1:Z O
*I I2:SN I
*I I3:SI I
*I I4:CK I
*CAP
*1 net_0:2 6.4491
*2 net_0:3 0.902625
*3 net_0:4 0.902625
*4 net_0:5 6.90975
*5 net_0:6 0.031125
*6 net_0:7 0.031125
*7 net_0:8 9.44332
*RES
*1 I1:Z net_0:1 100
*2 net_0:1 net_0:2 4299.4
*3 net_0:2 net_0:3 100
*4 net_0:3 net_0:4 1203.5
*5 net_0:4 I3:SI 50
*6 net_0:2 net_0:5 4606.5
*7 net_0:5 net_0:6 100
*8 net_0:6 net_0:7 41.5
*9 net_0:7 I4:CK 50
*10 net_0:5 net_0:8 6295.55
*11 net_0:8 I2:SN 100
*END

*D_NET net_1 293.809
*CONN
*I I5:ZN O
*I I6:D I
*I I7:A I
*CAP
*1 net_1:2 46.061
*2 net_1:3 3.40688
*3 net_1:4 3.40688
*4 net_1:5 240.934
*RES
*1 I5:ZN net_1:1 143
*2 net_1:1 net_1:2 575.762
*3 net_1:2 net_1:3 143
*4 net_1:3 net_1:4 4542.5
*5 net_1:4 I7:A 50
*6 net_1:2 net_1:5 3011.68
*7 net_1:5 I6:D 143
*END

*D_NET net_10 66.2265
*CONN
*I I33:Q O
*I I34:D I
*I I35:A2 I
*I I36:A2 I
*CAP
*1 net_10:2 13.9922
*2 net_10:3 0.648962
*3 net_10:4 0.648962
*4 net_10:5 34.0836
*5 net_10:6 4.65922
*6 net_10:7 4.65922
*7 net_10:8 7.53427
*RES
*1 I33:Q net_10:1 146
*2 net_10:1 net_10:2 2.79845
*3 net_10:2 net_10:3 146
*4 net_10:3 net_10:4 865.283
*5 net_10:4 I35:A2 50
*6 net_10:2 net_10:5 6.81672
*7 net_10:5 net_10:6 9
*8 net_10:6 net_10:7 116.48
*9 net_10:7 I36:A2 139
*10 net_10:5 net_10:8 1.50685
*11 net_10:8 I34:D 146
*END

*D_NET net_11 800.705
*CONN
*I I37:ZN O
*I I38:CK I
*I I39:RN I
*I I40:G I
*CAP
*1 net_11:2 153.576
*2 net_11:3 19.9849
*3 net_11:4 19.9849
*4 net_11:5 275.157
*5 net_11:6 10.8251
*6 net_11:7 10.8251
*7 net_11:8 310.352
*RES
*1 I37:ZN net_11:1 146
*2 net_11:1 net_11:2 30.7152
*3 net_11:2 net_11:3 36
*4 net_11:3 net_11:4 3996.97
*5 net_11:4 I39:RN 120
*6 net_11:2 net_11:5 55.0314
*7 net_11:5 net_11:6 21
*8 net_11:6 net_11:7 1082.51
*9 net_11:7 I40:G 130
*10 net_11:5 net_11:8 62.0703
*11 net_11:8 I38:CK 146
*END

*D_NET net_12 325.2
*CONN
*I I41:ZN O
*I I42:A I
*CAP
*1 net_12:1 162.6
*2 net_12:2 162.6
*RES
*1 I41:ZN net_12:1 120
*2 net_12:1 net_12:2 32520
*3 net_12:2 I42:A 120
*END

*D_NET net_13 15.9078
*CONN
*I I43:GCK O
*I I44:A1 I
*I I45:SE I
*I I46:B2 I
*I I47:B1 I
*CAP
*1 net_13:2 1.82325
*2 net_13:3 0.03604
*3 net_13:4 0.03604
*4 net_13:5 10.4422
*5 net_13:6 0.03196
*6 net_13:7 0.03196
*7 net_13:8 1.989
*8 net_13:9 0.01275
*9 net_13:10 0.01275
*10 net_13:11 1.49175
*RES
*1 I43:GCK net_13:1 146
*2 net_13:1 net_13:2 0.36465
*3 net_13:2 net_13:3 3
*4 net_13:3 net_13:4 0.3604
*5 net_13:4 I45:SE 144
*6 net_13:2 net_13:5 2.08845
*7 net_13:5 net_13:6 21
*8 net_13:6 net_13:7 3.196
*9 net_13:7 I46:B2 130
*10 net_13:5 net_13:8 0.3978
*11 net_13:8 net_13:9 96
*12 net_13:9 net_13:10 17
*13 net_13:10 I47:B1 100
*14 net_13:8 net_13:11 0.29835
*15 net_13:11 I44:A1 146
*END

*D_NET net_14 263.259
*CONN
*I I48:Q O
*I I49:A4 I
*I I50:B2 I
*I I51:D I
*I I52:D I
*CAP
*1 net_14:2 15.1694
*2 net_14:3 2.37543
*3 net_14:4 2.37543
*4 net_14:5 89.1205
*5 net_14:6 5.12516
*6 net_14:7 5.12516
*7 net_14:8 66.3663
*8 net_14:9 0.403103
*9 net_14:10 0.403103
*10 net_14:11 76.7953
*RES
*1 I48:Q net_14:1 141
*2 net_14:1 net_14:2 189.618
*3 net_14:2 net_14:3 91
*4 net_14:3 net_14:4 3167.24
*5 net_14:4 I50:B2 100
*6 net_14:2 net_14:5 1114.01
*7 net_14:5 net_14:6 31
*8 net_14:6 net_14:7 1025.03
*9 net_14:7 I51:D 120
*10 net_14:5 net_14:8 829.579
*11 net_14:8 net_14:9 31
*12 net_14:9 net_14:10 80.6205
*13 net_14:10 I52:D 120
*14 net_14:8 net_14:11 959.941
*15 net_14:11 I49:A4 141
*END

*D_NET net_15 66.4
*CONN
*I I53:ZN O
*I I54:B I
*CAP
*1 net_15:1 33.2
*2 net_15:2 33.2
*RES
*1 I53:ZN net_15:1 141
*2 net_15:1 net_15:2 830
*3 net_15:2 I54:B 141
*END

*D_NET net_16 91.6317
*CONN
*I I55:ZN O
*I I56:A I
*I I57:B2 I
*CAP
*1 net_16:2 7.3948
*2 net_16:3 12.1695
*3 net_16:4 12.1695
*4 net_16:5 59.8979
*RES
*1 I55:ZN net_16:1 120
*2 net_16:1 net_16:2 739.48
*3 net_16:2 net_16:3 70
*4 net_16:3 net_16:4 16226
*5 net_16:4 I57:B2 100
*6 net_16:2 net_16:5 5989.79
*7 net_16:5 I56:A 120
*END

*D_NET net_17 263.6
*CONN
*I I58:ZN O
*I I59:A I
*CAP
*1 net_17:1 131.8
*2 net_17:2 131.8
*RES
*1 I58:ZN net_17:1 139
*2 net_17:1 net_17:2 3295
*3 net_17:2 I59:A 139
*END

*D_NET net_18 255.75
*CONN
*I I60:ZN O
*I I61:A1 I
*CAP
*1 net_18:1 127.875
*2 net_18:2 127.875
*RES
*1 I60:ZN net_18:1 100
*2 net_18:1 net_18:2 170500
*3 net_18:2 I61:A1 100
*END

*D_NET net_19 101
*CONN
*I I62:ZN O
*I I63:D I
*CAP
*1 net_19:1 50.5
*2 net_19:2 50.5
*RES
*1 I62:ZN net_19:1 110
*2 net_19:1 net_19:2 10100
*3 net_19:2 I63:D 110
*END

*D_NET net_2 246.644
*CONN
*I I10:S I
*I I8:ZN O
*I I9:A I
*CAP
*1 net_2:2 51.8463
*2 net_2:3 15.1598
*3 net_2:4 15.1598
*4 net_2:5 164.478
*RES
*1 I8:ZN net_2:1 100
*2 net_2:1 net_2:2 34564.2
*3 net_2:2 net_2:3 100
*4 net_2:3 net_2:4 20213
*5 net_2:4 I10:S 50
*6 net_2:2 net_2:5 109652
*7 net_2:5 I9:A 100
*END

*D_NET net_20 122.572
*CONN
*I I64:ZN O
*I I65:D I
*I I66:A I
*I I67:A I
*CAP
*1 net_20:2 47.6064
*2 net_20:3 1.0321
*3 net_20:4 1.0321
*4 net_20:5 22.04
*5 net_20:6 11.7659
*6 net_20:7 11.7659
*7 net_20:8 27.3296
*RES
*1 I64:ZN net_20:1 139
*2 net_20:1 net_20:2 595.08
*3 net_20:2 net_20:3 9
*4 net_20:3 net_20:4 103.21
*5 net_20:4 I66:A 135
*6 net_20:2 net_20:5 275.5
*7 net_20:5 net_20:6 139
*8 net_20:6 net_20:7 15687.9
*9 net_20:7 I67:A 50
*10 net_20:5 net_20:8 341.62
*11 net_20:8 I65:D 139
*END

*D_NET net_21 238.218
*CONN
*I I68:Z O
*I I69:SI I
*I I70:G I
*CAP
*1 net_21:2 141.871
*2 net_21:3 33.497
*3 net_21:4 33.497
*4 net_21:5 29.3527
*RES
*1 I68:Z net_21:1 141
*2 net_21:1 net_21:2 1773.39
*3 net_21:2 net_21:3 16
*4 net_21:3 net_21:4 3349.7
*5 net_21:4 I70:G 130
*6 net_21:2 net_21:5 366.909
*7 net_21:5 I69:SI 141
*END

*D_NET net_22 192.939
*CONN
*I I71:ZN O
*I I72:B2 I
*I I73:B2 I
*CAP
*1 net_22:2 93.0078
*2 net_22:3 11.729
*3 net_22:4 11.729
*4 net_22:5 76.4731
*RES
*1 I71:ZN net_22:1 139
*2 net_22:1 net_22:2 1162.6
*3 net_22:2 net_22:3 14
*4 net_22:3 net_22:4 1172.9
*5 net_22:4 I73:B2 130
*6 net_22:2 net_22:5 955.913
*7 net_22:5 I72:B2 139
*END

*D_NET net_23 117.146
*CONN
*I I74:ZN O
*I I75:B I
*I I76:A3 I
*I I77:A I
*CAP
*1 net_23:2 34.8548
*2 net_23:3 0
*3 net_23:4 0
*4 net_23:5 56.155
*5 net_23:6 6.2905
*6 net_23:7 6.2905
*7 net_23:8 13.5547
*RES
*1 I74:ZN net_23:1 135
*2 net_23:1 net_23:2 1742.74
*3 net_23:2 net_23:3 35
*4 net_23:3 net_23:4 0
*5 net_23:4 I76:A3 110
*6 net_23:2 net_23:5 2807.75
*7 net_23:5 net_23:6 10
*8 net_23:6 net_23:7 629.05
*9 net_23:7 I77:A 130
*10 net_23:5 net_23:8 677.733
*11 net_23:8 I75:B 135
*END

*D_NET net_24 272.921
*CONN
*I I78:GCK O
*I I79:A I
*I I80:A2 I
*I I81:CK I
*CAP
*1 net_24:2 89.3214
*2 net_24:3 16.4556
*3 net_24:4 16.4556
*4 net_24:5 122.498
*5 net_24:6 11.5434
*6 net_24:7 11.5434
*7 net_24:8 5.10408
*RES
*1 I78:GCK net_24:1 135
*2 net_24:1 net_24:2 4466.07
*3 net_24:2 net_24:3 25
*4 net_24:3 net_24:4 3291.11
*5 net_24:4 I80:A2 120
*6 net_24:2 net_24:5 6124.9
*7 net_24:5 net_24:6 25
*8 net_24:6 net_24:7 2308.69
*9 net_24:7 I81:CK 120
*10 net_24:5 net_24:8 255.204
*11 net_24:8 I79:A 135
*END

*D_NET net_25 289.137
*CONN
*I I82:ZN O
*I I83:A3 I
*I I84:A3 I
*I I85:B I
*CAP
*1 net_25:2 183.193
*2 net_25:3 29.2086
*3 net_25:4 29.2086
*4 net_25:5 9.04656
*5 net_25:6 18.1094
*6 net_25:7 18.1094
*7 net_25:8 2.26164
*RES
*1 I82:ZN net_25:1 135
*2 net_25:1 net_25:2 9159.64
*3 net_25:2 net_25:3 15
*4 net_25:3 net_25:4 2920.86
*5 net_25:4 I84:A3 125
*6 net_25:2 net_25:5 452.328
*7 net_25:5 net_25:6 25
*8 net_25:6 net_25:7 3621.87
*9 net_25:7 I85:B 120
*10 net_25:5 net_25:8 113.082
*11 net_25:8 I83:A3 135
*END

*D_NET net_26 156.2
*CONN
*I I86:ZN O
*I I87:C2 I
*CAP
*1 net_26:1 78.1
*2 net_26:2 78.1
*RES
*1 I86:ZN net_26:1 145
*2 net_26:1 net_26:2 781
*3 net_26:2 I87:C2 145
*END

*D_NET net_27 282
*CONN
*I I88:ZN O
*I I89:B I
*I I90:A I
*CAP
*1 net_27:2 63.6192
*2 net_27:3 41.595
*3 net_27:4 41.595
*4 net_27:5 135.191
*RES
*1 I88:ZN net_27:1 110
*2 net_27:1 net_27:2 6361.92
*3 net_27:2 net_27:3 60
*4 net_27:3 net_27:4 55460
*5 net_27:4 I90:A 100
*6 net_27:2 net_27:5 13519.1
*7 net_27:5 I89:B 110
*END

*D_NET net_28 314.149
*CONN
*I I91:ZN O
*I I92:A1 I
*I I93:A1 I
*I I94:A3 I
*CAP
*1 net_28:2 113.835
*2 net_28:3 22.8773
*3 net_28:4 22.8773
*4 net_28:5 89.7543
*5 net_28:6 28.0247
*6 net_28:7 28.0247
*7 net_28:8 8.75652
*RES
*1 I91:ZN net_28:1 125
*2 net_28:1 net_28:2 5691.74
*3 net_28:2 net_28:3 15
*4 net_28:3 net_28:4 4575.46
*5 net_28:4 I93:A1 120
*6 net_28:2 net_28:5 4487.72
*7 net_28:5 net_28:6 75
*8 net_28:6 net_28:7 37366.2
*9 net_28:7 I94:A3 100
*10 net_28:5 net_28:8 437.826
*11 net_28:8 I92:A1 125
*END

*D_NET net_29 547.064
*CONN
*I I95:ZN O
*I I96:C2 I
*I I97:A1 I
*I I98:CK I
*CAP
*1 net_29:2 60.21
*2 net_29:3 7.99724
*3 net_29:4 7.99724
*4 net_29:5 231.206
*5 net_29:6 49.9828
*6 net_29:7 49.9828
*7 net_29:8 139.687
*RES
*1 I95:ZN net_29:1 137
*2 net_29:1 net_29:2 752.625
*3 net_29:2 net_29:3 17
*4 net_29:3 net_29:4 799.724
*5 net_29:4 I97:A1 125
*6 net_29:2 net_29:5 2890.08
*7 net_29:5 net_29:6 17
*8 net_29:6 net_29:7 4998.28
*9 net_29:7 I98:CK 125
*10 net_29:5 net_29:8 1746.09
*11 net_29:8 I96:C2 137
*END

*D_NET net_3 42.9834
*CONN
*I I11:ZN O
*I I12:CK I
*I I13:EN I
*CAP
*1 net_3:2 14.1229
*2 net_3:3 9.1605
*3 net_3:4 9.1605
*4 net_3:5 10.5395
*RES
*1 I11:ZN net_3:1 137
*2 net_3:1 net_3:2 176.537
*3 net_3:2 net_3:3 27
*4 net_3:3 net_3:4 1832.1
*5 net_3:4 I13:EN 120
*6 net_3:2 net_3:5 131.744
*7 net_3:5 I12:CK 137
*END

*D_NET net_30 138.715
*CONN
*I I100:C2 I
*I I101:D I
*I I99:ZN O
*CAP
*1 net_30:2 17.7606
*2 net_30:3 59.67
*3 net_30:4 59.67
*4 net_30:5 1.6146
*RES
*1 I99:ZN net_30:1 141
*2 net_30:1 net_30:2 222.007
*3 net_30:2 net_30:3 4
*4 net_30:3 net_30:4 1491.75
*5 net_30:4 I101:D 139
*6 net_30:2 net_30:5 20.1825
*7 net_30:5 I100:C2 141
*END

*D_NET net_31 441.234
*CONN
*I I102:ZN O
*I I103:SE I
*I I104:B I
*I I105:A I
*I I106:B1 I
*CAP
*1 net_31:2 12.2332
*2 net_31:3 4.5118
*3 net_31:4 4.5118
*4 net_31:5 61.1658
*5 net_31:6 15.9964
*6 net_31:7 15.9964
*7 net_31:8 110.098
*8 net_31:9 16.6116
*9 net_31:10 16.6116
*10 net_31:11 183.497
*RES
*1 I102:ZN net_31:1 139
*2 net_31:1 net_31:2 152.915
*3 net_31:2 net_31:3 9
*4 net_31:3 net_31:4 451.18
*5 net_31:4 I104:B 135
*6 net_31:2 net_31:5 764.572
*7 net_31:5 net_31:6 19
*8 net_31:6 net_31:7 1599.64
*9 net_31:7 I105:A 125
*10 net_31:5 net_31:8 1376.23
*11 net_31:8 net_31:9 139
*12 net_31:9 net_31:10 22148.8
*13 net_31:10 I106:B1 50
*14 net_31:8 net_31:11 2293.72
*15 net_31:11 I103:SE 139
*END

*D_NET net_32 316.2
*CONN
*I I107:ZN O
*I I108:CK I
*CAP
*1 net_32:1 158.1
*2 net_32:2 158.1
*RES
*1 I107:ZN net_32:1 139
*2 net_32:1 net_32:2 3952.5
*3 net_32:2 I108:CK 139
*END

*D_NET net_33 231.703
*CONN
*I I109:ZN O
*I I110:B2 I
*I I111:D I
*CAP
*1 net_33:2 44.6601
*2 net_33:3 49.9249
*3 net_33:4 49.9249
*4 net_33:5 87.1935
*RES
*1 I109:ZN net_33:1 110
*2 net_33:1 net_33:2 4466.01
*3 net_33:2 net_33:3 110
*4 net_33:3 net_33:4 66566.5
*5 net_33:4 I111:D 50
*6 net_33:2 net_33:5 8719.35
*7 net_33:5 I110:B2 110
*END

*D_NET net_34 72.2768
*CONN
*I I112:Z O
*I I113:A3 I
*I I114:A2 I
*I I115:A4 I
*CAP
*1 net_34:2 23.5616
*2 net_34:3 3.25636
*3 net_34:4 3.25636
*4 net_34:5 36.815
*5 net_34:6 1.22114
*6 net_34:7 1.22114
*7 net_34:8 2.9452
*RES
*1 I112:Z net_34:1 135
*2 net_34:1 net_34:2 1178.08
*3 net_34:2 net_34:3 85
*4 net_34:3 net_34:4 4341.82
*5 net_34:4 I114:A2 100
*6 net_34:2 net_34:5 1840.75
*7 net_34:5 net_34:6 85
*8 net_34:6 net_34:7 1628.18
*9 net_34:7 I115:A4 100
*10 net_34:5 net_34:8 147.26
*11 net_34:8 I113:A3 135
*END

*D_NET net_35 203.2
*CONN
*I I116:GCK O
*I I117:A2 I
*CAP
*1 net_35:1 101.6
*2 net_35:2 101.6
*RES
*1 I116:GCK net_35:1 137
*2 net_35:1 net_35:2 2540
*3 net_35:2 I117:A2 137
*END

*D_NET net_36 408.71
*CONN
*I I118:ZN O
*I I119:A I
*I I120:B I
*CAP
*1 net_36:2 83.9327
*2 net_36:3 25.191
*3 net_36:4 25.191
*4 net_36:5 274.395
*RES
*1 I118:ZN net_36:1 143
*2 net_36:1 net_36:2 1049.16
*3 net_36:2 net_36:3 8
*4 net_36:3 net_36:4 629.775
*5 net_36:4 I120:B 137
*6 net_36:2 net_36:5 3429.94
*7 net_36:5 I119:A 143
*END

*D_NET net_37 212.409
*CONN
*I I121:Q O
*I I122:D I
*I I123:A I
*I I124:A2 I
*CAP
*1 net_37:2 28.3011
*2 net_37:3 33.0876
*3 net_37:4 33.0876
*4 net_37:5 52.1335
*5 net_37:6 13.5359
*6 net_37:7 13.5359
*7 net_37:8 38.7278
*RES
*1 I121:Q net_37:1 130
*2 net_37:1 net_37:2 1415.05
*3 net_37:2 net_37:3 30
*4 net_37:3 net_37:4 6617.53
*5 net_37:4 I123:A 110
*6 net_37:2 net_37:5 2606.68
*7 net_37:5 net_37:6 10
*8 net_37:6 net_37:7 1353.59
*9 net_37:7 I124:A2 125
*10 net_37:5 net_37:8 1936.39
*11 net_37:8 I122:D 130
*END

*D_NET net_38 171.786
*CONN
*I I125:Z O
*I I126:B I
*I I127:A I
*CAP
*1 net_38:2 76.9714
*2 net_38:3 33.124
*3 net_38:4 33.124
*4 net_38:5 28.5667
*RES
*1 I125:Z net_38:1 144
*2 net_38:1 net_38:2 384.857
*3 net_38:2 net_38:3 14
*4 net_38:3 net_38:4 3312.4
*5 net_38:4 I127:A 135
*6 net_38:2 net_38:5 142.834
*7 net_38:5 I126:B 144
*END

*D_NET net_39 853.236
*CONN
*I I128:ZN O
*I I129:A1 I
*I I130:A I
*I I131:A2 I
*I I132:A1 I
*CAP
*1 net_39:2 292.399
*2 net_39:3 5.46498
*3 net_39:4 5.46498
*4 net_39:5 248.85
*5 net_39:6 1.94587
*6 net_39:7 1.94587
*7 net_39:8 93.3187
*8 net_39:9 0.828028
*9 net_39:10 0.828028
*10 net_39:11 202.191
*RES
*1 I128:ZN net_39:1 146
*2 net_39:1 net_39:2 58.4798
*3 net_39:2 net_39:3 7
*4 net_39:3 net_39:4 136.625
*5 net_39:4 I130:A 141
*6 net_39:2 net_39:5 49.77
*7 net_39:5 net_39:6 96
*8 net_39:6 net_39:7 2594.49
*9 net_39:7 I131:A2 100
*10 net_39:5 net_39:8 18.6638
*11 net_39:8 net_39:9 3
*12 net_39:9 net_39:10 8.28028
*13 net_39:10 I132:A1 144
*14 net_39:8 net_39:11 40.4381
*15 net_39:11 I129:A1 146
*END

*D_NET net_4 152.289
*CONN
*I I14:Q O
*I I15:C1 I
*I I16:A I
*CAP
*1 net_4:2 18.7071
*2 net_4:3 26.8822
*3 net_4:4 26.8822
*4 net_4:5 79.817
*RES
*1 I14:Q net_4:1 135
*2 net_4:1 net_4:2 935.355
*3 net_4:2 net_4:3 135
*4 net_4:3 net_4:4 35843
*5 net_4:4 I16:A 50
*6 net_4:2 net_4:5 3990.85
*7 net_4:5 I15:C1 135
*END

*D_NET net_40 104.461
*CONN
*I I133:Z O
*I I134:C2 I
*I I135:D I
*CAP
*1 net_40:2 58.6039
*2 net_40:3 5.5055
*3 net_40:4 5.5055
*4 net_40:5 34.8456
*RES
*1 I133:Z net_40:1 120
*2 net_40:1 net_40:2 5860.39
*3 net_40:2 net_40:3 20
*4 net_40:3 net_40:4 1101.1
*5 net_40:4 I135:D 110
*6 net_40:2 net_40:5 3484.56
*7 net_40:5 I134:C2 120
*END

*D_NET net_41 207.2
*CONN
*I I136:ZN O
*I I137:SE I
*CAP
*1 net_41:1 103.6
*2 net_41:2 103.6
*RES
*1 I136:ZN net_41:1 143
*2 net_41:1 net_41:2 2590
*3 net_41:2 I137:SE 143
*END

*D_NET net_42 147.444
*CONN
*I I138:Z O
*I I139:C2 I
*I I140:CK I
*CAP
*1 net_42:2 25.7316
*2 net_42:3 40.271
*3 net_42:4 40.271
*4 net_42:5 41.1706
*RES
*1 I138:Z net_42:1 137
*2 net_42:1 net_42:2 321.645
*3 net_42:2 net_42:3 17
*4 net_42:3 net_42:4 4027.1
*5 net_42:4 I140:CK 125
*6 net_42:2 net_42:5 514.632
*7 net_42:5 I139:C2 137
*END

*D_NET net_43 346.974
*CONN
*I I141:ZN O
*I I142:A4 I
*I I143:A2 I
*I I144:B2 I
*I I145:B I
*CAP
*1 net_43:2 41.8394
*2 net_43:3 21.5325
*3 net_43:4 21.5325
*4 net_43:5 53.2501
*5 net_43:6 1.7226
*6 net_43:7 1.7226
*7 net_43:8 69.7323
*8 net_43:9 18.3744
*9 net_43:10 18.3744
*10 net_43:11 98.8931
*RES
*1 I141:ZN net_43:1 144
*2 net_43:1 net_43:2 209.197
*3 net_43:2 net_43:3 144
*4 net_43:3 net_43:4 28710
*5 net_43:4 I143:A2 50
*6 net_43:2 net_43:5 266.251
*7 net_43:5 net_43:6 5
*8 net_43:6 net_43:7 43.065
*9 net_43:7 I144:B2 141
*10 net_43:5 net_43:8 348.661
*11 net_43:8 net_43:9 7
*12 net_43:9 net_43:10 459.36
*13 net_43:10 I145:B 139
*14 net_43:8 net_43:11 494.465
*15 net_43:11 I142:A4 144
*END

*D_NET net_44 561.128
*CONN
*I I146:Q O
*I I147:A1 I
*I I148:A2 I
*I I149:D I
*CAP
*1 net_44:2 51.5222
*2 net_44:3 32.3035
*3 net_44:4 32.3035
*4 net_44:5 135.831
*5 net_44:6 41.0005
*6 net_44:7 41.0005
*7 net_44:8 227.166
*RES
*1 I146:Q net_44:1 139
*2 net_44:1 net_44:2 644.028
*3 net_44:2 net_44:3 29
*4 net_44:3 net_44:4 6460.69
*5 net_44:4 I148:A2 120
*6 net_44:2 net_44:5 1697.89
*7 net_44:5 net_44:6 39
*8 net_44:6 net_44:7 8200.11
*9 net_44:7 I149:D 110
*10 net_44:5 net_44:8 2839.58
*11 net_44:8 I147:A1 139
*END

*D_NET net_45 137.61
*CONN
*I I150:ZN O
*I I151:D I
*I I152:CK I
*CAP
*1 net_45:2 59.0436
*2 net_45:3 37.62
*3 net_45:4 37.62
*4 net_45:5 3.3264
*RES
*1 I150:ZN net_45:1 141
*2 net_45:1 net_45:2 738.045
*3 net_45:2 net_45:3 4
*4 net_45:3 net_45:4 940.5
*5 net_45:4 I152:CK 139
*6 net_45:2 net_45:5 41.58
*7 net_45:5 I151:D 141
*END

*D_NET net_46 293.447
*CONN
*I I153:ZN O
*I I154:B2 I
*I I155:B1 I
*I I156:A3 I
*I I157:A I
*CAP
*1 net_46:2 21.2993
*2 net_46:3 0.268125
*3 net_46:4 0.268125
*4 net_46:5 125.29
*5 net_46:6 0.755625
*6 net_46:7 0.755625
*7 net_46:8 90.2088
*8 net_46:9 2.2425
*9 net_46:10 2.2425
*10 net_46:11 50.116
*RES
*1 I153:ZN net_46:1 110
*2 net_46:1 net_46:2 2129.93
*3 net_46:2 net_46:3 110
*4 net_46:3 net_46:4 357.5
*5 net_46:4 I155:B1 50
*6 net_46:2 net_46:5 12529
*7 net_46:5 net_46:6 110
*8 net_46:6 net_46:7 1007.5
*9 net_46:7 I156:A3 50
*10 net_46:5 net_46:8 9020.88
*11 net_46:8 net_46:9 60
*12 net_46:9 net_46:10 2990
*13 net_46:10 I157:A 100
*14 net_46:8 net_46:11 5011.6
*15 net_46:11 I154:B2 110
*END

*D_NET net_47 336.8
*CONN
*I I158:ZN O
*I I159:A1 I
*CAP
*1 net_47:1 168.4
*2 net_47:2 168.4
*RES
*1 I158:ZN net_47:1 144
*2 net_47:1 net_47:2 1684
*3 net_47:2 I159:A1 144
*END

*D_NET net_48 487.537
*CONN
*I I160:Q O
*I I161:CK I
*I I162:A2 I
*I I163:D I
*CAP
*1 net_48:2 64.5918
*2 net_48:3 5.09347
*3 net_48:4 5.09347
*4 net_48:5 184.548
*5 net_48:6 16.064
*6 net_48:7 16.064
*7 net_48:8 196.082
*RES
*1 I160:Q net_48:1 141
*2 net_48:1 net_48:2 807.398
*3 net_48:2 net_48:3 16
*4 net_48:3 net_48:4 509.347
*5 net_48:4 I162:A2 130
*6 net_48:2 net_48:5 2306.85
*7 net_48:5 net_48:6 21
*8 net_48:6 net_48:7 1606.4
*9 net_48:7 I163:D 125
*10 net_48:5 net_48:8 2451.03
*11 net_48:8 I161:CK 141
*END

*D_NET net_49 143.968
*CONN
*I I164:Z O
*I I165:A I
*I I166:SI I
*CAP
*1 net_49:2 30.008
*2 net_49:3 29.7
*3 net_49:4 29.7
*4 net_49:5 54.56
*RES
*1 I164:Z net_49:1 143
*2 net_49:1 net_49:2 375.1
*3 net_49:2 net_49:3 143
*4 net_49:3 net_49:4 39600
*5 net_49:4 I166:SI 50
*6 net_49:2 net_49:5 682
*7 net_49:5 I165:A 143
*END

*D_NET net_5 84.2742
*CONN
*I I17:ZN O
*I I18:A2 I
*I I19:A2 I
*I I20:B2 I
*I I21:B2 I
*CAP
*1 net_5:2 29.4485
*2 net_5:3 0.285018
*3 net_5:4 0.285018
*4 net_5:5 7.47201
*5 net_5:6 3.50572
*6 net_5:7 3.50572
*7 net_5:8 16.7021
*8 net_5:9 2.96419
*9 net_5:10 2.96419
*10 net_5:11 17.1417
*RES
*1 I17:ZN net_5:1 130
*2 net_5:1 net_5:2 1472.43
*3 net_5:2 net_5:3 10
*4 net_5:3 net_5:4 28.5018
*5 net_5:4 I19:A2 125
*6 net_5:2 net_5:5 373.601
*7 net_5:5 net_5:6 80
*8 net_5:6 net_5:7 4674.29
*9 net_5:7 I20:B2 100
*10 net_5:5 net_5:8 835.107
*11 net_5:8 net_5:9 30
*12 net_5:9 net_5:10 592.837
*13 net_5:10 I21:B2 110
*14 net_5:8 net_5:11 857.083
*15 net_5:11 I18:A2 130
*END

*D_NET net_50 22.6
*CONN
*I I167:ZN O
*I I168:S I
*CAP
*1 net_50:1 11.3
*2 net_50:2 11.3
*RES
*1 I167:ZN net_50:1 135
*2 net_50:1 net_50:2 1130
*3 net_50:2 I168:S 135
*END

*D_NET net_51 209
*CONN
*I I169:ZN O
*I I170:A I
*CAP
*1 net_51:1 104.5
*2 net_51:2 104.5
*RES
*1 I169:ZN net_51:1 144
*2 net_51:1 net_51:2 1045
*3 net_51:2 I170:A 144
*END

*D_NET net_52 186.589
*CONN
*I I171:ZN O
*I I172:A4 I
*I I173:A I
*I I174:B I
*I I175:A I
*CAP
*1 net_52:2 31.031
*2 net_52:3 4.13795
*3 net_52:4 4.13795
*4 net_52:5 107.198
*5 net_52:6 5.75714
*6 net_52:7 5.75714
*7 net_52:8 26.7995
*8 net_52:9 0.179911
*9 net_52:10 0.179911
*10 net_52:11 1.4105
*RES
*1 I171:ZN net_52:1 143
*2 net_52:1 net_52:2 387.887
*3 net_52:2 net_52:3 4
*4 net_52:3 net_52:4 103.449
*5 net_52:4 I173:A 141
*6 net_52:2 net_52:5 1339.97
*7 net_52:5 net_52:6 43
*8 net_52:6 net_52:7 1151.43
*9 net_52:7 I174:B 110
*10 net_52:5 net_52:8 334.994
*11 net_52:8 net_52:9 23
*12 net_52:9 net_52:10 17.9911
*13 net_52:10 I175:A 125
*14 net_52:8 net_52:11 17.6313
*15 net_52:11 I172:A4 143
*END

*D_NET net_53 104.792
*CONN
*I I176:ZN O
*I I177:A2 I
*I I178:D I
*CAP
*1 net_53:2 53.861
*2 net_53:3 20.5425
*3 net_53:4 20.5425
*4 net_53:5 9.84555
*RES
*1 I176:ZN net_53:1 139
*2 net_53:1 net_53:2 673.262
*3 net_53:2 net_53:3 39
*4 net_53:3 net_53:4 4108.5
*5 net_53:4 I178:D 110
*6 net_53:2 net_53:5 123.069
*7 net_53:5 I177:A2 139
*END

*D_NET net_54 63.7769
*CONN
*I I179:ZN O
*I I180:G I
*I I181:B1 I
*I I182:A I
*CAP
*1 net_54:2 18.1467
*2 net_54:3 2.61366
*3 net_54:4 2.61366
*4 net_54:5 24.1956
*5 net_54:6 3.06288
*6 net_54:7 3.06288
*7 net_54:8 10.0815
*RES
*1 I179:ZN net_54:1 137
*2 net_54:1 net_54:2 226.834
*3 net_54:2 net_54:3 27
*4 net_54:3 net_54:4 522.732
*5 net_54:4 I181:B1 120
*6 net_54:2 net_54:5 302.445
*7 net_54:5 net_54:6 87
*8 net_54:6 net_54:7 4083.84
*9 net_54:7 I182:A 100
*10 net_54:5 net_54:8 126.019
*11 net_54:8 I180:G 137
*END

*D_NET net_55 82.2
*CONN
*I I183:GCK O
*I I184:A I
*CAP
*1 net_55:1 41.1
*2 net_55:2 41.1
*RES
*1 I183:GCK net_55:1 144
*2 net_55:1 net_55:2 411
*3 net_55:2 I184:A 144
*END

*D_NET net_56 260.017
*CONN
*I I185:ZN O
*I I186:C1 I
*I I187:C1 I
*I I188:D I
*CAP
*1 net_56:2 85.8858
*2 net_56:3 1.11576
*3 net_56:4 1.11576
*4 net_56:5 66.3663
*5 net_56:6 1.04005
*6 net_56:7 1.04005
*7 net_56:8 103.453
*RES
*1 I185:ZN net_56:1 120
*2 net_56:1 net_56:2 8588.58
*3 net_56:2 net_56:3 20
*4 net_56:3 net_56:4 223.153
*5 net_56:4 I187:C1 110
*6 net_56:2 net_56:5 6636.63
*7 net_56:5 net_56:6 120
*8 net_56:6 net_56:7 1386.74
*9 net_56:7 I188:D 50
*10 net_56:5 net_56:8 10345.3
*11 net_56:8 I186:C1 120
*END

*D_NET net_57 119.126
*CONN
*I I189:ZN O
*I I190:A4 I
*I I191:SI I
*I I192:B2 I
*CAP
*1 net_57:2 42.6258
*2 net_57:3 0.031875
*3 net_57:4 0.031875
*4 net_57:5 33.4917
*5 net_57:6 0.159375
*6 net_57:7 0.159375
*7 net_57:8 42.6258
*RES
*1 I189:ZN net_57:1 100
*2 net_57:1 net_57:2 28417.2
*3 net_57:2 net_57:3 100
*4 net_57:3 net_57:4 42.5
*5 net_57:4 I191:SI 50
*6 net_57:2 net_57:5 22327.8
*7 net_57:5 net_57:6 100
*8 net_57:6 net_57:7 212.5
*9 net_57:7 I192:B2 50
*10 net_57:5 net_57:8 28417.2
*11 net_57:8 I190:A4 100
*END

*D_NET net_58 363.315
*CONN
*I I193:ZN O
*I I194:A I
*I I195:A4 I
*I I196:A I
*I I197:A I
*CAP
*1 net_58:2 108.986
*2 net_58:3 14.5761
*3 net_58:4 14.5761
*4 net_58:5 121.493
*5 net_58:6 5.46603
*6 net_58:7 5.46603
*7 net_58:8 73.2531
*8 net_58:9 2.60287
*9 net_58:10 2.60287
*10 net_58:11 14.2933
*RES
*1 I193:ZN net_58:1 139
*2 net_58:1 net_58:2 1362.33
*3 net_58:2 net_58:3 9
*4 net_58:3 net_58:4 1457.61
*5 net_58:4 I195:A4 135
*6 net_58:2 net_58:5 1518.66
*7 net_58:5 net_58:6 139
*8 net_58:6 net_58:7 7288.04
*9 net_58:7 I196:A 50
*10 net_58:5 net_58:8 915.663
*11 net_58:8 net_58:9 39
*12 net_58:9 net_58:10 520.574
*13 net_58:10 I197:A 110
*14 net_58:8 net_58:11 178.666
*15 net_58:11 I194:A 139
*END

*D_NET net_59 327.172
*CONN
*I I198:ZN O
*I I199:A I
*I I200:A1 I
*I I201:A1 I
*CAP
*1 net_59:2 96.2161
*2 net_59:3 0.598278
*3 net_59:4 0.598278
*4 net_59:5 160.977
*5 net_59:6 4.78622
*6 net_59:7 4.78622
*7 net_59:8 59.2099
*RES
*1 I198:ZN net_59:1 141
*2 net_59:1 net_59:2 1202.7
*3 net_59:2 net_59:3 6
*4 net_59:3 net_59:4 14.9569
*5 net_59:4 I200:A1 137
*6 net_59:2 net_59:5 2012.21
*7 net_59:5 net_59:6 11
*8 net_59:6 net_59:7 478.622
*9 net_59:7 I201:A1 135
*10 net_59:5 net_59:8 740.124
*11 net_59:8 I199:A 141
*END

*D_NET net_6 418.262
*CONN
*I I22:ZN O
*I I23:A I
*I I24:D I
*CAP
*1 net_6:2 235.991
*2 net_6:3 35.2425
*3 net_6:4 35.2425
*4 net_6:5 111.785
*RES
*1 I22:ZN net_6:1 143
*2 net_6:1 net_6:2 2949.89
*3 net_6:2 net_6:3 6
*4 net_6:3 net_6:4 881.063
*5 net_6:4 I24:D 139
*6 net_6:2 net_6:5 1397.32
*7 net_6:5 I23:A 143
*END

*D_NET net_60 291
*CONN
*I I202:Z O
*I I203:SE I
*CAP
*1 net_60:1 145.5
*2 net_60:2 145.5
*RES
*1 I202:Z net_60:1 143
*2 net_60:1 net_60:2 3637.5
*3 net_60:2 I203:SE 143
*END

*D_NET net_61 198.641
*CONN
*I I204:ZN O
*I I205:D I
*I I206:A I
*I I207:A I
*I I208:A1 I
*CAP
*1 net_61:2 50.1512
*2 net_61:3 2.01611
*3 net_61:4 2.01611
*4 net_61:5 30.7746
*5 net_61:6 1.42914
*6 net_61:7 1.42914
*7 net_61:8 56.99
*8 net_61:9 1.55674
*9 net_61:10 1.55674
*10 net_61:11 50.7211
*RES
*1 I204:ZN net_61:1 146
*2 net_61:1 net_61:2 10.0302
*3 net_61:2 net_61:3 5
*4 net_61:3 net_61:4 50.4028
*5 net_61:4 I206:A 143
*6 net_61:2 net_61:5 6.15492
*7 net_61:5 net_61:6 9
*8 net_61:6 net_61:7 35.7286
*9 net_61:7 I207:A 139
*10 net_61:5 net_61:8 11.398
*11 net_61:8 net_61:9 5
*12 net_61:9 net_61:10 38.9186
*13 net_61:10 I208:A1 143
*14 net_61:8 net_61:11 10.1442
*15 net_61:11 I205:D 146
*END

*D_NET net_62 367
*CONN
*I I209:Z O
*I I210:B2 I
*CAP
*1 net_62:1 183.5
*2 net_62:2 183.5
*RES
*1 I209:Z net_62:1 135
*2 net_62:1 net_62:2 18350
*3 net_62:2 I210:B2 135
*END

*D_NET net_63 72.0157
*CONN
*I I211:ZN O
*I I212:A4 I
*I I213:GN I
*CAP
*1 net_63:2 19.7817
*2 net_63:3 6.068
*3 net_63:4 6.068
*4 net_63:5 40.098
*RES
*1 I211:ZN net_63:1 139
*2 net_63:1 net_63:2 247.271
*3 net_63:2 net_63:3 29
*4 net_63:3 net_63:4 1213.6
*5 net_63:4 I213:GN 120
*6 net_63:2 net_63:5 501.225
*7 net_63:5 I212:A4 139
*END

*D_NET net_64 294
*CONN
*I I214:Q O
*I I215:B1 I
*CAP
*1 net_64:1 147
*2 net_64:2 147
*RES
*1 I214:Q net_64:1 146
*2 net_64:1 net_64:2 58.8
*3 net_64:2 I215:B1 146
*END

*D_NET net_65 248.748
*CONN
*I I216:ZN O
*I I217:CK I
*I I218:A1 I
*I I219:CK I
*CAP
*1 net_65:2 1.56337
*2 net_65:3 12.0969
*3 net_65:4 12.0969
*4 net_65:5 93.8022
*5 net_65:6 21.6017
*6 net_65:7 21.6017
*7 net_65:8 85.9854
*RES
*1 I216:ZN net_65:1 110
*2 net_65:1 net_65:2 156.337
*3 net_65:2 net_65:3 110
*4 net_65:3 net_65:4 16129.3
*5 net_65:4 I218:A1 50
*6 net_65:2 net_65:5 9380.22
*7 net_65:5 net_65:6 110
*8 net_65:6 net_65:7 28802.2
*9 net_65:7 I219:CK 50
*10 net_65:5 net_65:8 8598.54
*11 net_65:8 I217:CK 110
*END

*D_NET net_66 108.336
*CONN
*I I220:ZN O
*I I221:A I
*I I222:A1 I
*I I223:A2 I
*I I224:A3 I
*CAP
*1 net_66:2 11.2635
*2 net_66:3 6.00126
*3 net_66:4 6.00126
*4 net_66:5 2.68178
*5 net_66:6 0
*6 net_66:7 0
*7 net_66:8 53.6355
*8 net_66:9 6.33099
*9 net_66:10 6.33099
*10 net_66:11 16.0907
*RES
*1 I220:ZN net_66:1 100
*2 net_66:1 net_66:2 7508.97
*3 net_66:2 net_66:3 100
*4 net_66:3 net_66:4 8001.67
*5 net_66:4 I222:A1 50
*6 net_66:2 net_66:5 1787.85
*7 net_66:5 net_66:6 100
*8 net_66:6 net_66:7 0
*9 net_66:7 I223:A2 50
*10 net_66:5 net_66:8 35757
*11 net_66:8 net_66:9 100
*12 net_66:9 net_66:10 8441.33
*13 net_66:10 I224:A3 50
*14 net_66:8 net_66:11 10727.1
*15 net_66:11 I221:A 100
*END

*D_NET net_67 290.6
*CONN
*I I225:Q O
*I I226:A1 I
*CAP
*1 net_67:1 145.3
*2 net_67:2 145.3
*RES
*1 I225:Q net_67:1 120
*2 net_67:1 net_67:2 29060
*3 net_67:2 I226:A1 120
*END

*D_NET net_68 116.8
*CONN
*I I227:ZN O
*I I228:A2 I
*CAP
*1 net_68:1 58.4
*2 net_68:2 58.4
*RES
*1 I227:ZN net_68:1 139
*2 net_68:1 net_68:2 1460
*3 net_68:2 I228:A2 139
*END

*D_NET net_69 63.3639
*CONN
*I I229:ZN O
*I I230:C1 I
*I I231:A I
*I I232:CK I
*I I233:A1 I
*CAP
*1 net_69:2 25.5704
*2 net_69:3 3.14728
*3 net_69:4 3.14728
*4 net_69:5 8.40672
*5 net_69:6 3.0479
*6 net_69:7 3.0479
*7 net_69:8 9.10728
*8 net_69:9 0.441724
*9 net_69:10 0.441724
*10 net_69:11 7.0056
*RES
*1 I229:ZN net_69:1 141
*2 net_69:1 net_69:2 319.63
*3 net_69:2 net_69:3 141
*4 net_69:3 net_69:4 4196.38
*5 net_69:4 I231:A 50
*6 net_69:2 net_69:5 105.084
*7 net_69:5 net_69:6 11
*8 net_69:6 net_69:7 304.79
*9 net_69:7 I232:CK 135
*10 net_69:5 net_69:8 113.841
*11 net_69:8 net_69:9 16
*12 net_69:9 net_69:10 44.1724
*13 net_69:10 I233:A1 130
*14 net_69:8 net_69:11 87.57
*15 net_69:11 I230:C1 141
*END

*D_NET net_7 779
*CONN
*I I25:Q O
*I I26:EN I
*CAP
*1 net_7:1 389.5
*2 net_7:2 389.5
*RES
*1 I25:Q net_7:1 145.5
*2 net_7:1 net_7:2 155.8
*3 net_7:2 I26:EN 145.5
*END

*D_NET net_70 428.185
*CONN
*I I234:Z O
*I I235:B1 I
*I I236:B1 I
*I I237:EN I
*CAP
*1 net_70:2 66.5
*2 net_70:3 30.3227
*3 net_70:4 30.3227
*4 net_70:5 95
*5 net_70:6 16.5698
*6 net_70:7 16.5698
*7 net_70:8 172.9
*RES
*1 I234:Z net_70:1 137
*2 net_70:1 net_70:2 831.25
*3 net_70:2 net_70:3 87
*4 net_70:3 net_70:4 40430.2
*5 net_70:4 I236:B1 100
*6 net_70:2 net_70:5 1187.5
*7 net_70:5 net_70:6 7
*8 net_70:6 net_70:7 1656.98
*9 net_70:7 I237:EN 135
*10 net_70:5 net_70:8 2161.25
*11 net_70:8 I235:B1 137
*END

*D_NET net_71 151.823
*CONN
*I I238:ZN O
*I I239:A I
*I I240:D I
*I I241:B2 I
*CAP
*1 net_71:2 39.2673
*2 net_71:3 5.64553
*3 net_71:4 5.64553
*4 net_71:5 52.3564
*5 net_71:6 7.15772
*6 net_71:7 7.15772
*7 net_71:8 34.5926
*RES
*1 I238:ZN net_71:1 100
*2 net_71:1 net_71:2 26178.2
*3 net_71:2 net_71:3 100
*4 net_71:3 net_71:4 7527.37
*5 net_71:4 I240:D 50
*6 net_71:2 net_71:5 34904.2
*7 net_71:5 net_71:6 100
*8 net_71:6 net_71:7 9543.63
*9 net_71:7 I241:B2 50
*10 net_71:5 net_71:8 23061.7
*11 net_71:8 I239:A 100
*END

*D_NET net_72 426
*CONN
*I I242:ZN O
*I I243:A I
*CAP
*1 net_72:1 213
*2 net_72:2 213
*RES
*1 I242:ZN net_72:1 145.5
*2 net_72:1 net_72:2 85.2
*3 net_72:2 I243:A 145.5
*END

*D_NET net_73 310.8
*CONN
*I I244:Q O
*I I245:C1 I
*CAP
*1 net_73:1 155.4
*2 net_73:2 155.4
*RES
*1 I244:Q net_73:1 141
*2 net_73:1 net_73:2 3885
*3 net_73:2 I245:C1 141
*END

*D_NET net_74 35.6353
*CONN
*I I246:Z O
*I I247:SE I
*I I248:G I
*CAP
*1 net_74:2 18.5749
*2 net_74:3 1.386
*3 net_74:4 1.386
*4 net_74:5 14.2884
*RES
*1 I246:Z net_74:1 141
*2 net_74:1 net_74:2 232.186
*3 net_74:2 net_74:3 6
*4 net_74:3 net_74:4 34.65
*5 net_74:4 I248:G 137
*6 net_74:2 net_74:5 178.605
*7 net_74:5 I247:SE 141
*END

*D_NET net_75 257.619
*CONN
*I I249:ZN O
*I I250:RN I
*I I251:C1 I
*CAP
*1 net_75:2 63.3412
*2 net_75:3 29.047
*3 net_75:4 29.047
*4 net_75:5 136.184
*RES
*1 I249:ZN net_75:1 141
*2 net_75:1 net_75:2 791.765
*3 net_75:2 net_75:3 6
*4 net_75:3 net_75:4 726.175
*5 net_75:4 I251:C1 137
*6 net_75:2 net_75:5 1702.29
*7 net_75:5 I250:RN 141
*END

*D_NET net_76 149.8
*CONN
*I I252:ZN O
*I I253:A2 I
*CAP
*1 net_76:1 74.9
*2 net_76:2 74.9
*RES
*1 I252:ZN net_76:1 141
*2 net_76:1 net_76:2 1872.5
*3 net_76:2 I253:A2 141
*END

*D_NET net_77 60.2
*CONN
*I I254:Z O
*I I255:A2 I
*CAP
*1 net_77:1 30.1
*2 net_77:2 30.1
*RES
*1 I254:Z net_77:1 110
*2 net_77:1 net_77:2 6020
*3 net_77:2 I255:A2 110
*END

*D_NET net_78 326.82
*CONN
*I I256:ZN O
*I I257:B1 I
*I I258:D I
*I I259:A2 I
*I I260:B1 I
*CAP
*1 net_78:2 129.214
*2 net_78:3 8.148
*3 net_78:4 8.148