*SPEF "1.0"
*DESIGN "tau2020v1"
*PROGRAM "RandomNets"
*T_UNIT 1 NS
*C_UNIT 1 FF
*R_UNIT 1 OHM

*PORTS 


*D_NET net_0 140.6
*CONN
*I I1:ZN O
*I I2:A I
*CAP
1 I1:ZN 70.3
2 I2:A 70.3
*RES
2 I1:ZN I2:A 14280
*END

*D_NET net_1 790.5
*CONN
*I I3:Z O
*I I4:A I
*CAP
1 I3:Z 395.25
2 I4:A 395.25
*RES
2 I3:Z I4:A 449.1
*END

*D_NET net_10 100.2
*CONN
*I I21:Z O
*I I22:A I
*CAP
1 I21:Z 50.1
2 I22:A 50.1
*RES
2 I21:Z I22:A 10240
*END

*D_NET net_11 316.6
*CONN
*I I23:ZN O
*I I24:A I
*CAP
1 I23:ZN 158.3
2 I24:A 158.3
*RES
2 I23:ZN I24:A 16090
*END

*D_NET net_12 379.2
*CONN
*I I25:ZN O
*I I26:A I
*CAP
1 I25:ZN 189.6
2 I26:A 189.6
*RES
2 I25:ZN I26:A 2186
*END

*D_NET net_13 85.6
*CONN
*I I27:Z O
*I I28:A I
*CAP
1 I27:Z 42.8
2 I28:A 42.8
*RES
2 I27:Z I28:A 1352
*END

*D_NET net_14 238.6
*CONN
*I I29:ZN O
*I I30:A I
*CAP
1 I29:ZN 119.3
2 I30:A 119.3
*RES
2 I29:ZN I30:A 12190
*END

*D_NET net_15 530.5
*CONN
*I I31:ZN O
*I I32:A I
*CAP
1 I31:ZN 265.25
2 I32:A 265.25
*RES
2 I31:ZN I32:A 398.1
*END

*D_NET net_16 222.4
*CONN
*I I33:ZN O
*I I34:A I
*CAP
1 I33:ZN 111.2
2 I34:A 111.2
*RES
2 I33:ZN I34:A 11380
*END

*D_NET net_17 237.4
*CONN
*I I35:Z O
*I I36:A I
*CAP
1 I35:Z 118.7
2 I36:A 118.7
*RES
2 I35:Z I36:A 1475
*END

*D_NET net_18 373.4
*CONN
*I I37:ZN O
*I I38:A I
*CAP
1 I37:ZN 186.7
2 I38:A 186.7
*RES
2 I37:ZN I38:A 37560
*END

*D_NET net_19 79.6
*CONN
*I I39:ZN O
*I I40:A I
*CAP
1 I39:ZN 39.8
2 I40:A 39.8
*RES
2 I39:ZN I40:A 1281
*END

*D_NET net_2 74.25
*CONN
*I I5:Z O
*I I6:A I
*CAP
1 I5:Z 37.125
2 I6:A 37.125
*RES
2 I5:Z I6:A 49700
*END

*D_NET net_20 293.85
*CONN
*I I41:Z O
*I I42:A I
*CAP
1 I41:Z 146.925
2 I42:A 146.925
*RES
2 I41:Z I42:A 196100
*END

*D_NET net_21 391
*CONN
*I I43:Z O
*I I44:A I
*CAP
1 I43:Z 195.5
2 I44:A 195.5
*RES
2 I43:Z I44:A 5169.5
*END

*D_NET net_22 138
*CONN
*I I45:ZN O
*I I46:A I
*CAP
1 I45:ZN 69
2 I46:A 69
*RES
2 I45:ZN I46:A 318.6
*END

*D_NET net_23 28
*CONN
*I I47:Z O
*I I48:A I
*CAP
1 I47:Z 14
2 I48:A 14
*RES
2 I47:Z I48:A 636
*END

*D_NET net_24 14
*CONN
*I I49:Z O
*I I50:A I
*CAP
1 I49:Z 7
2 I50:A 7
*RES
2 I49:Z I50:A 950
*END

*D_NET net_25 219.8
*CONN
*I I51:ZN O
*I I52:A I
*CAP
1 I51:ZN 109.9
2 I52:A 109.9
*RES
2 I51:ZN I52:A 22200
*END

*D_NET net_26 309.4
*CONN
*I I53:ZN O
*I I54:A I
*CAP
1 I53:ZN 154.7
2 I54:A 154.7
*RES
2 I53:ZN I54:A 15720
*END

*D_NET net_27 378.2
*CONN
*I I55:ZN O
*I I56:A I
*CAP
1 I55:ZN 189.1
2 I56:A 189.1
*RES
2 I55:ZN I56:A 19170
*END

*D_NET net_28 386.4
*CONN
*I I57:Z O
*I I58:A I
*CAP
1 I57:Z 193.2
2 I58:A 193.2
*RES
2 I57:Z I58:A 38880
*END

*D_NET net_29 312.6
*CONN
*I I59:Z O
*I I60:A I
*CAP
1 I59:Z 156.3
2 I60:A 156.3
*RES
2 I59:Z I60:A 4193.5
*END

*D_NET net_3 169.5
*CONN
*I I7:ZN O
*I I8:A I
*CAP
1 I7:ZN 84.75
2 I8:A 84.75
*RES
2 I7:ZN I8:A 324.9
*END

*D_NET net_30 279.6
*CONN
*I I61:Z O
*I I62:A I
*CAP
1 I61:Z 139.8
2 I62:A 139.8
*RES
2 I61:Z I62:A 3777
*END

*D_NET net_31 371.4
*CONN
*I I63:ZN O
*I I64:A I
*CAP
1 I63:ZN 185.7
2 I64:A 185.7
*RES
2 I63:ZN I64:A 18840
*END

*D_NET net_32 267.2
*CONN
*I I65:Z O
*I I66:A I
*CAP
1 I65:Z 133.6
2 I66:A 133.6
*RES
2 I65:Z I66:A 1624
*END

*D_NET net_33 958
*CONN
*I I67:Z O
*I I68:A I
*CAP
1 I67:Z 479
2 I68:A 479
*RES
2 I67:Z I68:A 482.6
*END

*D_NET net_34 189
*CONN
*I I69:ZN O
*I I70:A I
*CAP
1 I69:ZN 94.5
2 I70:A 94.5
*RES
2 I69:ZN I70:A 9720
*END

*D_NET net_35 376.4
*CONN
*I I71:ZN O
*I I72:A I
*CAP
1 I71:ZN 188.2
2 I72:A 188.2
*RES
2 I71:ZN I72:A 19090
*END

*D_NET net_36 304.4
*CONN
*I I73:ZN O
*I I74:A I
*CAP
1 I73:ZN 152.2
2 I74:A 152.2
*RES
2 I73:ZN I74:A 1810
*END

*D_NET net_37 687
*CONN
*I I75:Z O
*I I76:A I
*CAP
1 I75:Z 343.5
2 I76:A 343.5
*RES
2 I75:Z I76:A 429.4
*END

*D_NET net_38 174.15
*CONN
*I I77:Z O
*I I78:A I
*CAP
1 I77:Z 87.075
2 I78:A 87.075
*RES
2 I77:Z I78:A 116300
*END

*D_NET net_39 815
*CONN
*I I79:ZN O
*I I80:A I
*CAP
1 I79:ZN 407.5
2 I80:A 407.5
*RES
2 I79:ZN I80:A 455
*END

*D_NET net_4 18
*CONN
*I I10:A I
*I I9:ZN O
*CAP
1 I9:ZN 9
2 I10:A 9
*RES
2 I9:ZN I10:A 507
*END

*D_NET net_40 297
*CONN
*I I81:ZN O
*I I82:A I
*CAP
1 I81:ZN 148.5
2 I82:A 148.5
*RES
2 I81:ZN I82:A 1773
*END

*D_NET net_41 228.6
*CONN
*I I83:Z O
*I I84:A I
*CAP
1 I83:Z 114.3
2 I84:A 114.3
*RES
2 I83:Z I84:A 1433
*END

*D_NET net_42 325.8
*CONN
*I I85:Z O
*I I86:A I
*CAP
1 I85:Z 162.9
2 I86:A 162.9
*RES
2 I85:Z I86:A 1917
*END

*D_NET net_43 270.6
*CONN
*I I87:ZN O
*I I88:A I
*CAP
1 I87:ZN 135.3
2 I88:A 135.3
*RES
2 I87:ZN I88:A 13800
*END

*D_NET net_44 63
*CONN
*I I89:ZN O
*I I90:A I
*CAP
1 I89:ZN 31.5
2 I90:A 31.5
*RES
2 I89:ZN I90:A 605
*END

*D_NET net_45 216.6
*CONN
*I I91:ZN O
*I I92:A I
*CAP
1 I91:ZN 108.3
2 I92:A 108.3
*RES
2 I91:ZN I92:A 21880
*END

*D_NET net_46 10.05
*CONN
*I I93:Z O
*I I94:A I
*CAP
1 I93:Z 5.025
2 I94:A 5.025
*RES
2 I93:Z I94:A 6900
*END

*D_NET net_47 54.4
*CONN
*I I95:ZN O
*I I96:A I
*CAP
1 I95:ZN 27.2
2 I96:A 27.2
*RES
2 I95:ZN I96:A 560
*END

*D_NET net_48 292.4
*CONN
*I I97:ZN O
*I I98:A I
*CAP
1 I97:ZN 146.2
2 I98:A 146.2
*RES
2 I97:ZN I98:A 14870
*END

*D_NET net_49 151.8
*CONN
*I I100:A I
*I I99:ZN O
*CAP
1 I99:ZN 75.9
2 I100:A 75.9
*RES
2 I99:ZN I100:A 2179.5
*END

*D_NET net_5 38.5
*CONN
*I I11:Z O
*I I12:A I
*CAP
1 I11:Z 19.25
2 I12:A 19.25
*RES
2 I11:Z I12:A 299.7
*END

*D_NET net_50 248.2
*CONN
*I I101:ZN O
*I I102:A I
*CAP
1 I101:ZN 124.1
2 I102:A 124.1
*RES
2 I101:ZN I102:A 12680
*END

*D_NET net_51 54.6
*CONN
*I I103:Z O
*I I104:A I
*CAP
1 I103:Z 27.3
2 I104:A 27.3
*RES
2 I103:Z I104:A 968.5
*END

*D_NET net_52 107.8
*CONN
*I I105:Z O
*I I106:A I
*CAP
1 I105:Z 53.9
2 I106:A 53.9
*RES
2 I105:Z I106:A 5650
*END

*D_NET net_53 204.8
*CONN
*I I107:ZN O
*I I108:A I
*CAP
1 I107:ZN 102.4
2 I108:A 102.4
*RES
2 I107:ZN I108:A 20720
*END

*D_NET net_54 644
*CONN
*I I109:Z O
*I I110:A I
*CAP
1 I109:Z 322
2 I110:A 322
*RES
2 I109:Z I110:A 419.8
*END

*D_NET net_55 220.4
*CONN
*I I111:ZN O
*I I112:A I
*CAP
1 I111:ZN 110.2
2 I112:A 110.2
*RES
2 I111:ZN I112:A 3037
*END

*D_NET net_56 151.2
*CONN
*I I113:ZN O
*I I114:A I
*CAP
1 I113:ZN 75.6
2 I114:A 75.6
*RES
2 I113:ZN I114:A 2164
*END

*D_NET net_57 166.2
*CONN
*I I115:ZN O
*I I116:A I
*CAP
1 I115:ZN 83.1
2 I116:A 83.1
*RES
2 I115:ZN I116:A 16840
*END

*D_NET net_58 374
*CONN
*I I117:Z O
*I I118:A I
*CAP
1 I117:Z 187
2 I118:A 187
*RES
2 I117:Z I118:A 37640
*END

*D_NET net_59 19.4
*CONN
*I I119:ZN O
*I I120:A I
*CAP
1 I119:ZN 9.7
2 I120:A 9.7
*RES
2 I119:ZN I120:A 385
*END

*D_NET net_6 264
*CONN
*I I13:ZN O
*I I14:A I
*CAP
1 I13:ZN 132
2 I14:A 132
*RES
2 I13:ZN I14:A 13460
*END

*D_NET net_60 140.2
*CONN
*I I121:Z O
*I I122:A I
*CAP
1 I121:Z 70.1
2 I122:A 70.1
*RES
2 I121:Z I122:A 2030.5
*END

*D_NET net_61 155.55
*CONN
*I I123:ZN O
*I I124:A I
*CAP
1 I123:ZN 77.775
2 I124:A 77.775
*RES
2 I123:ZN I124:A 103900
*END

*D_NET net_62 562
*CONN
*I I125:Z O
*I I126:A I
*CAP
1 I125:Z 281
2 I126:A 281
*RES
2 I125:Z I126:A 404.4
*END

*D_NET net_63 83
*CONN
*I I127:ZN O
*I I128:A I
*CAP
1 I127:ZN 41.5
2 I128:A 41.5
*RES
2 I127:ZN I128:A 4420
*END

*D_NET net_64 22
*CONN
*I I129:ZN O
*I I130:A I
*CAP
1 I129:ZN 11
2 I130:A 11
*RES
2 I129:ZN I130:A 2420
*END

*D_NET net_65 290
*CONN
*I I131:Z O
*I I132:A I
*CAP
1 I131:Z 145
2 I132:A 145
*RES
2 I131:Z I132:A 350
*END

*D_NET net_66 106.5
*CONN
*I I133:ZN O
*I I134:A I
*CAP
1 I133:ZN 53.25
2 I134:A 53.25
*RES
2 I133:ZN I134:A 71200
*END

*D_NET net_67 356
*CONN
*I I135:ZN O
*I I136:A I
*CAP
1 I135:ZN 178
2 I136:A 178
*RES
2 I135:ZN I136:A 35820
*END

*D_NET net_68 96.2
*CONN
*I I137:ZN O
*I I138:A I
*CAP
1 I137:ZN 48.1
2 I138:A 48.1
*RES
2 I137:ZN I138:A 5060
*END

*D_NET net_69 119
*CONN
*I I139:ZN O
*I I140:A I
*CAP
1 I139:ZN 59.5
2 I140:A 59.5
*RES
2 I139:ZN I140:A 1761.5
*END

*D_NET net_7 12.8
*CONN
*I I15:Z O
*I I16:A I
*CAP
1 I15:Z 6.4
2 I16:A 6.4
*RES
2 I15:Z I16:A 900
*END

*D_NET net_70 61.4
*CONN
*I I141:ZN O
*I I142:A I
*CAP
1 I141:ZN 30.7
2 I142:A 30.7
*RES
2 I141:ZN I142:A 1041.5
*END

*D_NET net_71 279.6
*CONN
*I I143:ZN O
*I I144:A I
*CAP
1 I143:ZN 139.8
2 I144:A 139.8
*RES
2 I143:ZN I144:A 186600
*END

*D_NET net_72 193.95
*CONN
*I I145:ZN O
*I I146:A I
*CAP
1 I145:ZN 96.975
2 I146:A 96.975
*RES
2 I145:ZN I146:A 129500
*END

*D_NET net_73 198
*CONN
*I I147:Z O
*I I148:A I
*CAP
1 I147:Z 99
2 I148:A 99
*RES
2 I147:Z I148:A 10170
*END

*D_NET net_74 43.6
*CONN
*I I149:ZN O
*I I150:A I
*CAP
1 I149:ZN 21.8
2 I150:A 21.8
*RES
2 I149:ZN I150:A 823
*END

*D_NET net_75 65.5
*CONN
*I I151:ZN O
*I I152:A I
*CAP
1 I151:ZN 32.75
2 I152:A 32.75
*RES
2 I151:ZN I152:A 304.1
*END

*D_NET net_76 152.4
*CONN
*I I153:ZN O
*I I154:A I
*CAP
1 I153:ZN 76.2
2 I154:A 76.2
*RES
2 I153:ZN I154:A 1050
*END

*D_NET net_77 255
*CONN
*I I155:ZN O
*I I156:A I
*CAP
1 I155:ZN 127.5
2 I156:A 127.5
*RES
2 I155:ZN I156:A 3461.5
*END

*D_NET net_78 169.4
*CONN
*I I157:ZN O
*I I158:A I
*CAP
1 I157:ZN 84.7
2 I158:A 84.7
*RES
2 I157:ZN I158:A 8720
*END

*D_NET net_79 118.5
*CONN
*I I159:ZN O
*I I160:A I
*CAP
1 I159:ZN 59.25
2 I160:A 59.25
*RES
2 I159:ZN I160:A 315.7
*END

*D_NET net_8 301.4
*CONN
*I I17:ZN O
*I I18:A I
*CAP
1 I17:ZN 150.7
2 I18:A 150.7
*RES
2 I17:ZN I18:A 30360
*END

*D_NET net_80 264.8
*CONN
*I I161:ZN O
*I I162:A I
*CAP
1 I161:ZN 132.4
2 I162:A 132.4
*RES
2 I161:ZN I162:A 13500
*END

*D_NET net_81 83.6
*CONN
*I I163:ZN O
*I I164:A I
*CAP
1 I163:ZN 41.8
2 I164:A 41.8
*RES
2 I163:ZN I164:A 708
*END

*D_NET net_82 869.5
*CONN
*I I165:Z O
*I I166:A I
*CAP
1 I165:Z 434.75
2 I166:A 434.75
*RES
2 I165:Z I166:A 464.9
*END

*D_NET net_83 0.8
*CONN
*I I167:Z O
*I I168:A I
*CAP
1 I167:Z 0.4
2 I168:A 0.4
*RES
2 I167:Z I168:A 288
*END

*D_NET net_84 325.6
*CONN
*I I169:Z O
*I I170:A I
*CAP
1 I169:Z 162.8
2 I170:A 162.8
*RES
2 I169:Z I170:A 16540
*END

*D_NET net_85 287.8
*CONN
*I I171:ZN O
*I I172:A I
*CAP
1 I171:ZN 143.9
2 I172:A 143.9
*RES
2 I171:ZN I172:A 3879.5
*END

*D_NET net_86 201.6
*CONN
*I I173:ZN O
*I I174:A I
*CAP
1 I173:ZN 100.8
2 I174:A 100.8
*RES
2 I173:ZN I174:A 2806
*END

*D_NET net_87 264.8
*CONN
*I I175:Z O
*I I176:A I
*CAP
1 I175:Z 132.4
2 I176:A 132.4
*RES
2 I175:Z I176:A 26720
*END

*D_NET net_88 244.8
*CONN
*I I177:ZN O
*I I178:A I
*CAP
1 I177:ZN 122.4
2 I178:A 122.4
*RES
2 I177:ZN I178:A 3346
*END

*D_NET net_89 387
*CONN
*I I179:Z O
*I I180:A I
*CAP
1 I179:Z 193.5
2 I180:A 193.5
*RES
2 I179:Z I180:A 38920
*END

*D_NET net_9 236.4
*CONN
*I I19:Z O
*I I20:A I
*CAP
1 I19:Z 118.2
2 I20:A 118.2
*RES
2 I19:Z I20:A 3237
*END

*D_NET net_90 312.4
*CONN
*I I181:ZN O
*I I182:A I
*CAP
1 I181:ZN 156.2
2 I182:A 156.2
*RES
2 I181:ZN I182:A 4183
*END

*D_NET net_91 157.4
*CONN
*I I183:ZN O
*I I184:A I
*CAP
1 I183:ZN 78.7
2 I184:A 78.7
*RES
2 I183:ZN I184:A 1077
*END

*D_NET net_92 164.85
*CONN
*I I185:ZN O
*I I186:A I
*CAP
1 I185:ZN 82.425
2 I186:A 82.425
*RES
2 I185:ZN I186:A 110100
*END

*D_NET net_93 359.4
*CONN
*I I187:ZN O
*I I188:A I
*CAP
1 I187:ZN 179.7
2 I188:A 179.7
*RES
2 I187:ZN I188:A 18230
*END

*D_NET net_94 6.6
*CONN
*I I189:Z O
*I I190:A I
*CAP
1 I189:Z 3.3
2 I190:A 3.3
*RES
2 I189:Z I190:A 4600
*END

*D_NET net_95 302.8
*CONN
*I I191:ZN O
*I I192:A I
*CAP
1 I191:ZN 151.4
2 I192:A 151.4
*RES
2 I191:ZN I192:A 4067
*END

*D_NET net_96 41.2
*CONN
*I I193:ZN O
*I I194:A I
*CAP
1 I193:ZN 20.6
2 I194:A 20.6
*RES
2 I193:ZN I194:A 801
*END

*D_NET net_97 4.8
*CONN
*I I195:ZN O
*I I196:A I
*CAP
1 I195:ZN 2.4
2 I196:A 2.4
*RES
2 I195:ZN I196:A 3400
*END

*D_NET net_98 304.6
*CONN
*I I197:ZN O
*I I198:A I
*CAP
1 I197:ZN 152.3
2 I198:A 152.3
*RES
2 I197:ZN I198:A 4093.5
*END

*D_NET net_99 154.4
*CONN
*I I199:Z O
*I I200:A I
*CAP
1 I199:Z 77.2
2 I200:A 77.2
*RES
2 I199:Z I200:A 7990
*END
