*SPEF "1.0"
*DESIGN "tau2020_nangate"
*PROGRAM "RandomNets"
*T_UNIT 1 NS
*C_UNIT 1 FF
*R_UNIT 1 OHM

*PORTS 


*D_NET net_0 35.55
*CONN
*I I1:ZN O
*I I2:A I
*CAP
1 I1:ZN 17.775
2 I2:A 17.775
*RES
2 I1:ZN I2:A 730.375
*END

*D_NET net_1 31
*CONN
*I I3:Z O
*I I4:A I
*CAP
1 I3:Z 15.5
2 I4:A 15.5
*RES
2 I3:Z I4:A 298.2
*END

*D_NET net_2 39.3
*CONN
*I I5:Z O
*I I6:A I
*CAP
1 I5:Z 19.65
2 I6:A 19.65
*RES
2 I5:Z I6:A 769.25
*END

*D_NET net_3 74
*CONN
*I I7:ZN O
*I I8:A I
*CAP
1 I7:ZN 37
2 I8:A 37
*RES
2 I7:ZN I8:A 305.8
*END

*D_NET net_4 84.8
*CONN
*I I10:A I
*I I9:ZN O
*CAP
1 I9:ZN 42.4
2 I10:A 42.4
*RES
2 I9:ZN I10:A 714
*END

*D_NET net_5 75.8
*CONN
*I I11:ZN O
*I I12:A I
*CAP
1 I11:ZN 37.9
2 I12:A 37.9
*RES
2 I11:ZN I12:A 7800
*END

*D_NET net_6 1.4
*CONN
*I I13:Z O
*I I14:A I
*CAP
1 I13:Z 0.7
2 I14:A 0.7
*RES
2 I13:Z I14:A 295.5
*END

*D_NET net_7 42.2
*CONN
*I I15:ZN O
*I I16:A I
*CAP
1 I15:ZN 21.1
2 I16:A 21.1
*RES
2 I15:ZN I16:A 501
*END

*D_NET net_8 45.6
*CONN
*I I17:ZN O
*I I18:A I
*CAP
1 I17:ZN 22.8
2 I18:A 22.8
*RES
2 I17:ZN I18:A 2540
*END

*D_NET net_9 113.2
*CONN
*I I19:ZN O
*I I20:A I
*CAP
1 I19:ZN 56.6
2 I20:A 56.6
*RES
2 I19:ZN I20:A 11560
*END
