*SPEF "1.0"
*DESIGN "tau2020v1"
*PROGRAM "RandomNets"
*T_UNIT 1 NS
*C_UNIT 1 FF
*R_UNIT 1 OHM

*PORTS 


*D_NET net_0 178.8
*CONN
*I I1:Z O
*I I2:A I
*CAP
1 I1:Z 89.4
2 I2:A 89.4
*RES
2 I1:Z I2:A 18100
*END

*D_NET net_1 801.5
*CONN
*I I3:ZN O
*I I4:A I
*CAP
1 I3:ZN 400.75
2 I4:A 400.75
*RES
2 I3:ZN I4:A 451.3
*END

*D_NET net_10 257.7
*CONN
*I I21:ZN O
*I I22:A I
*CAP
1 I21:ZN 128.85
2 I22:A 128.85
*RES
2 I21:ZN I22:A 172000
*END

*D_NET net_11 610.5
*CONN
*I I23:ZN O
*I I24:A I
*CAP
1 I23:ZN 305.25
2 I24:A 305.25
*RES
2 I23:ZN I24:A 413.1
*END

*D_NET net_12 104.8
*CONN
*I I25:ZN O
*I I26:A I
*CAP
1 I25:ZN 52.4
2 I26:A 52.4
*RES
2 I25:ZN I26:A 10720
*END

*D_NET net_13 356
*CONN
*I I27:ZN O
*I I28:A I
*CAP
1 I27:ZN 178
2 I28:A 178
*RES
2 I27:ZN I28:A 363.2
*END

*D_NET net_14 56.6
*CONN
*I I29:Z O
*I I30:A I
*CAP
1 I29:Z 28.3
2 I30:A 28.3
*RES
2 I29:Z I30:A 573
*END

*D_NET net_15 950
*CONN
*I I31:ZN O
*I I32:A I
*CAP
1 I31:ZN 475
2 I32:A 475
*RES
2 I31:ZN I32:A 482
*END

*D_NET net_16 206.8
*CONN
*I I33:ZN O
*I I34:A I
*CAP
1 I33:ZN 103.4
2 I34:A 103.4
*RES
2 I33:ZN I34:A 10610
*END

*D_NET net_17 24.4
*CONN
*I I35:Z O
*I I36:A I
*CAP
1 I35:Z 12.2
2 I36:A 12.2
*RES
2 I35:Z I36:A 2680
*END

*D_NET net_18 88.2
*CONN
*I I37:ZN O
*I I38:A I
*CAP
1 I37:ZN 44.1
2 I38:A 44.1
*RES
2 I37:ZN I38:A 1388.5
*END

*D_NET net_19 425.5
*CONN
*I I39:ZN O
*I I40:A I
*CAP
1 I39:ZN 212.75
2 I40:A 212.75
*RES
2 I39:ZN I40:A 377.1
*END

*D_NET net_2 170
*CONN
*I I5:ZN O
*I I6:A I
*CAP
1 I5:ZN 85
2 I6:A 85
*RES
2 I5:ZN I6:A 325
*END

*D_NET net_20 203.6
*CONN
*I I41:ZN O
*I I42:A I
*CAP
1 I41:ZN 101.8
2 I42:A 101.8
*RES
2 I41:ZN I42:A 2827
*END

*D_NET net_21 657
*CONN
*I I43:ZN O
*I I44:A I
*CAP
1 I43:ZN 328.5
2 I44:A 328.5
*RES
2 I43:ZN I44:A 423.4
*END

*D_NET net_22 238.4
*CONN
*I I45:Z O
*I I46:A I
*CAP
1 I45:Z 119.2
2 I46:A 119.2
*RES
2 I45:Z I46:A 12180
*END

*D_NET net_23 63.8
*CONN
*I I47:ZN O
*I I48:A I
*CAP
1 I47:ZN 31.9
2 I48:A 31.9
*RES
2 I47:ZN I48:A 609
*END

*D_NET net_24 267.8
*CONN
*I I49:Z O
*I I50:A I
*CAP
1 I49:Z 133.9
2 I50:A 133.9
*RES
2 I49:Z I50:A 3633.5
*END

*D_NET net_25 338.4
*CONN
*I I51:ZN O
*I I52:A I
*CAP
1 I51:ZN 169.2
2 I52:A 169.2
*RES
2 I51:ZN I52:A 1980
*END

*D_NET net_26 80.2
*CONN
*I I53:Z O
*I I54:A I
*CAP
1 I53:Z 40.1
2 I54:A 40.1
*RES
2 I53:Z I54:A 1276.5
*END

*D_NET net_27 332
*CONN
*I I55:ZN O
*I I56:A I
*CAP
1 I55:ZN 166
2 I56:A 166
*RES
2 I55:ZN I56:A 16850
*END

*D_NET net_28 87.4
*CONN
*I I57:ZN O
*I I58:A I
*CAP
1 I57:ZN 43.7
2 I58:A 43.7
*RES
2 I57:ZN I58:A 1370.5
*END

*D_NET net_29 338.4
*CONN
*I I59:Z O
*I I60:A I
*CAP
1 I59:Z 169.2
2 I60:A 169.2
*RES
2 I59:Z I60:A 4512
*END

*D_NET net_3 331.4
*CONN
*I I7:ZN O
*I I8:A I
*CAP
1 I7:ZN 165.7
2 I8:A 165.7
*RES
2 I7:ZN I8:A 33380
*END

*D_NET net_30 18.2
*CONN
*I I61:Z O
*I I62:A I
*CAP
1 I61:Z 9.1
2 I62:A 9.1
*RES
2 I61:Z I62:A 1180
*END

*D_NET net_31 308
*CONN
*I I63:Z O
*I I64:A I
*CAP
1 I63:Z 154
2 I64:A 154
*RES
2 I63:Z I64:A 15650
*END

*D_NET net_32 378.2
*CONN
*I I65:ZN O
*I I66:A I
*CAP
1 I65:ZN 189.1
2 I66:A 189.1
*RES
2 I65:ZN I66:A 19160
*END

*D_NET net_33 99.8
*CONN
*I I67:Z O
*I I68:A I
*CAP
1 I67:Z 49.9
2 I68:A 49.9
*RES
2 I67:Z I68:A 789
*END

*D_NET net_34 68
*CONN
*I I69:ZN O
*I I70:A I
*CAP
1 I69:ZN 34
2 I70:A 34
*RES
2 I69:ZN I70:A 628
*END

*D_NET net_35 10.8
*CONN
*I I71:ZN O
*I I72:A I
*CAP
1 I71:ZN 5.4
2 I72:A 5.4
*RES
2 I71:ZN I72:A 7400
*END

*D_NET net_36 9.8
*CONN
*I I73:ZN O
*I I74:A I
*CAP
1 I73:ZN 4.9
2 I74:A 4.9
*RES
2 I73:ZN I74:A 1220
*END

*D_NET net_37 550.5
*CONN
*I I75:ZN O
*I I76:A I
*CAP
1 I75:ZN 275.25
2 I76:A 275.25
*RES
2 I75:ZN I76:A 401.1
*END

*D_NET net_38 68
*CONN
*I I77:Z O
*I I78:A I
*CAP
1 I77:Z 34
2 I78:A 34
*RES
2 I77:Z I78:A 1132
*END

*D_NET net_39 127.6
*CONN
*I I79:ZN O
*I I80:A I
*CAP
1 I79:ZN 63.8
2 I80:A 63.8
*RES
2 I79:ZN I80:A 1869
*END

*D_NET net_4 84.4
*CONN
*I I10:A I
*I I9:ZN O
*CAP
1 I9:ZN 42.2
2 I10:A 42.2
*RES
2 I9:ZN I10:A 1329
*END

*D_NET net_40 508.5
*CONN
*I I81:Z O
*I I82:A I
*CAP
1 I81:Z 254.25
2 I82:A 254.25
*RES
2 I81:Z I82:A 393.7
*END

*D_NET net_41 37.5
*CONN
*I I83:ZN O
*I I84:A I
*CAP
1 I83:ZN 18.75
2 I84:A 18.75
*RES
2 I83:ZN I84:A 299.5
*END

*D_NET net_42 153
*CONN
*I I85:ZN O
*I I86:A I
*CAP
1 I85:ZN 76.5
2 I86:A 76.5
*RES
2 I85:ZN I86:A 322.6
*END

*D_NET net_43 330
*CONN
*I I87:ZN O
*I I88:A I
*CAP
1 I87:ZN 165
2 I88:A 165
*RES
2 I87:ZN I88:A 16760
*END

*D_NET net_44 122.4
*CONN
*I I89:Z O
*I I90:A I
*CAP
1 I89:Z 61.2
2 I90:A 61.2
*RES
2 I89:Z I90:A 12480
*END

*D_NET net_45 251.6
*CONN
*I I91:ZN O
*I I92:A I
*CAP
1 I91:ZN 125.8
2 I92:A 125.8
*RES
2 I91:ZN I92:A 1548
*END

*D_NET net_46 7.8
*CONN
*I I93:Z O
*I I94:A I
*CAP
1 I93:Z 3.9
2 I94:A 3.9
*RES
2 I93:Z I94:A 1020
*END

*D_NET net_47 236.4
*CONN
*I I95:Z O
*I I96:A I
*CAP
1 I95:Z 118.2
2 I96:A 118.2
*RES
2 I95:Z I96:A 3241
*END

*D_NET net_48 114.2
*CONN
*I I97:ZN O
*I I98:A I
*CAP
1 I97:ZN 57.1
2 I98:A 57.1
*RES
2 I97:ZN I98:A 11640
*END

*D_NET net_49 249.4
*CONN
*I I100:A I
*I I99:ZN O
*CAP
1 I99:ZN 124.7
2 I100:A 124.7
*RES
2 I99:ZN I100:A 1537
*END

*D_NET net_5 120.4
*CONN
*I I11:ZN O
*I I12:A I
*CAP
1 I11:ZN 60.2
2 I12:A 60.2
*RES
2 I11:ZN I12:A 1783
*END

*D_NET net_50 97.05
*CONN
*I I101:ZN O
*I I102:A I
*CAP
1 I101:ZN 48.525
2 I102:A 48.525
*RES
2 I101:ZN I102:A 64900
*END

*D_NET net_51 296
*CONN
*I I103:Z O
*I I104:A I
*CAP
1 I103:Z 148
2 I104:A 148
*RES
2 I103:Z I104:A 3986
*END

*D_NET net_52 201
*CONN
*I I105:ZN O
*I I106:A I
*CAP
1 I105:ZN 100.5
2 I106:A 100.5
*RES
2 I105:ZN I106:A 1293
*END

*D_NET net_53 324
*CONN
*I I107:Z O
*I I108:A I
*CAP
1 I107:Z 162
2 I108:A 162
*RES
2 I107:Z I108:A 1908
*END

*D_NET net_54 13.65
*CONN
*I I109:ZN O
*I I110:A I
*CAP
1 I109:ZN 6.825
2 I110:A 6.825
*RES
2 I109:ZN I110:A 9300
*END

*D_NET net_55 84.6
*CONN
*I I111:ZN O
*I I112:A I
*CAP
1 I111:ZN 42.3
2 I112:A 42.3
*RES
2 I111:ZN I112:A 4500
*END

*D_NET net_56 840
*CONN
*I I113:ZN O
*I I114:A I
*CAP
1 I113:ZN 420
2 I114:A 420
*RES
2 I113:ZN I114:A 459
*END

*D_NET net_57 114
*CONN
*I I115:Z O
*I I116:A I
*CAP
1 I115:Z 57
2 I116:A 57
*RES
2 I115:Z I116:A 76200
*END

*D_NET net_58 86
*CONN
*I I117:ZN O
*I I118:A I
*CAP
1 I117:ZN 43
2 I118:A 43
*RES
2 I117:ZN I118:A 4550
*END

*D_NET net_59 129.8
*CONN
*I I119:ZN O
*I I120:A I
*CAP
1 I119:ZN 64.9
2 I120:A 64.9
*RES
2 I119:ZN I120:A 6760
*END

*D_NET net_6 657
*CONN
*I I13:Z O
*I I14:A I
*CAP
1 I13:Z 328.5
2 I14:A 328.5
*RES
2 I13:Z I14:A 423.4
*END

*D_NET net_60 374
*CONN
*I I121:ZN O
*I I122:A I
*CAP
1 I121:ZN 187
2 I122:A 187
*RES
2 I121:ZN I122:A 4953
*END

*D_NET net_61 272.8
*CONN
*I I123:Z O
*I I124:A I
*CAP
1 I123:Z 136.4
2 I124:A 136.4
*RES
2 I123:Z I124:A 13900
*END

*D_NET net_62 104
*CONN
*I I125:ZN O
*I I126:A I
*CAP
1 I125:ZN 52
2 I126:A 52
*RES
2 I125:ZN I126:A 10640
*END

*D_NET net_63 399.4
*CONN
*I I127:ZN O
*I I128:A I
*CAP
1 I127:ZN 199.7
2 I128:A 199.7
*RES
2 I127:ZN I128:A 20220
*END

*D_NET net_64 99.5
*CONN
*I I129:ZN O
*I I130:A I
*CAP
1 I129:ZN 49.75
2 I130:A 49.75
*RES
2 I129:ZN I130:A 311.9
*END

*D_NET net_65 961.5
*CONN
*I I131:Z O
*I I132:A I
*CAP
1 I131:Z 480.75
2 I132:A 480.75
*RES
2 I131:Z I132:A 483.3
*END

*D_NET net_66 156.6
*CONN
*I I133:ZN O
*I I134:A I
*CAP
1 I133:ZN 78.3
2 I134:A 78.3
*RES
2 I133:ZN I134:A 8100
*END

*D_NET net_67 254.85
*CONN
*I I135:Z O
*I I136:A I
*CAP
1 I135:Z 127.425
2 I136:A 127.425
*RES
2 I135:Z I136:A 170100
*END

*D_NET net_68 42.6
*CONN
*I I137:ZN O
*I I138:A I
*CAP
1 I137:ZN 21.3
2 I138:A 21.3
*RES
2 I137:ZN I138:A 2390
*END

*D_NET net_69 319
*CONN
*I I139:Z O
*I I140:A I
*CAP
1 I139:Z 159.5
2 I140:A 159.5
*RES
2 I139:Z I140:A 355.8
*END

*D_NET net_7 387.2
*CONN
*I I15:ZN O
*I I16:A I
*CAP
1 I15:ZN 193.6
2 I16:A 193.6
*RES
2 I15:ZN I16:A 19610
*END

*D_NET net_70 216.8
*CONN
*I I141:Z O
*I I142:A I
*CAP
1 I141:Z 108.4
2 I142:A 108.4
*RES
2 I141:Z I142:A 2988
*END

*D_NET net_71 326.4
*CONN
*I I143:Z O
*I I144:A I
*CAP
1 I143:Z 163.2
2 I144:A 163.2
*RES
2 I143:Z I144:A 4358
*END

*D_NET net_72 268.6
*CONN
*I I145:ZN O
*I I146:A I
*CAP
1 I145:ZN 134.3
2 I146:A 134.3
*RES
2 I145:ZN I146:A 3631.5
*END

*D_NET net_73 146
*CONN
*I I147:ZN O
*I I148:A I
*CAP
1 I147:ZN 73
2 I148:A 73
*RES
2 I147:ZN I148:A 1018
*END

*D_NET net_74 246
*CONN
*I I149:ZN O
*I I150:A I
*CAP
1 I149:ZN 123
2 I150:A 123
*RES
2 I149:ZN I150:A 12550
*END

*D_NET net_75 251.8
*CONN
*I I151:ZN O
*I I152:A I
*CAP
1 I151:ZN 125.9
2 I152:A 125.9
*RES
2 I151:ZN I152:A 3429.5
*END

*D_NET net_76 228.4
*CONN
*I I153:ZN O
*I I154:A I
*CAP
1 I153:ZN 114.2
2 I154:A 114.2
*RES
2 I153:ZN I154:A 23060
*END

*D_NET net_77 91.2
*CONN
*I I155:ZN O
*I I156:A I
*CAP
1 I155:ZN 45.6
2 I156:A 45.6
*RES
2 I155:ZN I156:A 9340
*END

*D_NET net_78 268.4
*CONN
*I I157:Z O
*I I158:A I
*CAP
1 I157:Z 134.2
2 I158:A 134.2
*RES
2 I157:Z I158:A 3629
*END

*D_NET net_79 213.2
*CONN
*I I159:Z O
*I I160:A I
*CAP
1 I159:Z 106.6
2 I160:A 106.6
*RES
2 I159:Z I160:A 21540
*END

*D_NET net_8 8
*CONN
*I I17:Z O
*I I18:A I
*CAP
1 I17:Z 4
2 I18:A 4
*RES
2 I17:Z I18:A 374
*END

*D_NET net_80 114.4
*CONN
*I I161:Z O
*I I162:A I
*CAP
1 I161:Z 57.2
2 I162:A 57.2
*RES
2 I161:Z I162:A 11680
*END

*D_NET net_81 41
*CONN
*I I163:ZN O
*I I164:A I
*CAP
1 I163:ZN 20.5
2 I164:A 20.5
*RES
2 I163:ZN I164:A 790.5
*END

*D_NET net_82 141.2
*CONN
*I I165:Z O
*I I166:A I
*CAP
1 I165:Z 70.6
2 I166:A 70.6
*RES
2 I165:Z I166:A 2047
*END

*D_NET net_83 116.8
*CONN
*I I167:Z O
*I I168:A I
*CAP
1 I167:Z 58.4
2 I168:A 58.4
*RES
2 I167:Z I168:A 874
*END

*D_NET net_84 202.8
*CONN
*I I169:ZN O
*I I170:A I
*CAP
1 I169:ZN 101.4
2 I170:A 101.4
*RES
2 I169:ZN I170:A 10410
*END

*D_NET net_85 87.8
*CONN
*I I171:Z O
*I I172:A I
*CAP
1 I171:Z 43.9
2 I172:A 43.9
*RES
2 I171:Z I172:A 4650
*END

*D_NET net_86 374.8
*CONN
*I I173:ZN O
*I I174:A I
*CAP
1 I173:ZN 187.4
2 I174:A 187.4
*RES
2 I173:ZN I174:A 19010
*END

*D_NET net_87 207
*CONN
*I I175:ZN O
*I I176:A I
*CAP
1 I175:ZN 103.5
2 I176:A 103.5
*RES
2 I175:ZN I176:A 2869.5
*END

*D_NET net_88 54.8
*CONN
*I I177:ZN O
*I I178:A I
*CAP
1 I177:ZN 27.4
2 I178:A 27.4
*RES
2 I177:ZN I178:A 967
*END

*D_NET net_89 290.4
*CONN
*I I179:ZN O
*I I180:A I
*CAP
1 I179:ZN 145.2
2 I180:A 145.2
*RES
2 I179:ZN I180:A 193800
*END

*D_NET net_9 9.8
*CONN
*I I19:ZN O
*I I20:A I
*CAP
1 I19:ZN 4.9
2 I20:A 4.9
*RES
2 I19:ZN I20:A 396.5
*END

*D_NET net_90 732.5
*CONN
*I I181:ZN O
*I I182:A I
*CAP
1 I181:ZN 366.25
2 I182:A 366.25
*RES
2 I181:ZN I182:A 438.5
*END

*D_NET net_91 276.6
*CONN
*I I183:ZN O
*I I184:A I
*CAP
1 I183:ZN 138.3
2 I184:A 138.3
*RES
2 I183:ZN I184:A 184600
*END

*D_NET net_92 168.6
*CONN
*I I185:ZN O
*I I186:A I
*CAP
1 I185:ZN 84.3
2 I186:A 84.3
*RES
2 I185:ZN I186:A 1133
*END

*D_NET net_93 171.8
*CONN
*I I187:Z O
*I I188:A I
*CAP
1 I187:Z 85.9
2 I188:A 85.9
*RES
2 I187:Z I188:A 2425.5
*END

*D_NET net_94 677.5
*CONN
*I I189:Z O
*I I190:A I
*CAP
1 I189:Z 338.75
2 I190:A 338.75
*RES
2 I189:Z I190:A 426.5
*END

*D_NET net_95 189.4
*CONN
*I I191:ZN O
*I I192:A I
*CAP
1 I191:ZN 94.7
2 I192:A 94.7
*RES
2 I191:ZN I192:A 9720
*END

*D_NET net_96 6
*CONN
*I I193:ZN O
*I I194:A I
*CAP
1 I193:ZN 3
2 I194:A 3
*RES
2 I193:ZN I194:A 292.2
*END

*D_NET net_97 116.6
*CONN
*I I195:Z O
*I I196:A I
*CAP
1 I195:Z 58.3
2 I196:A 58.3
*RES
2 I195:Z I196:A 1735.5
*END

*D_NET net_98 254.5
*CONN
*I I197:Z O
*I I198:A I
*CAP
1 I197:Z 127.25
2 I198:A 127.25
*RES
2 I197:Z I198:A 341.9
*END

*D_NET net_99 354
*CONN
*I I199:ZN O
*I I200:A I
*CAP
1 I199:ZN 177
2 I200:A 177
*RES
2 I199:ZN I200:A 4703
*END
