*SPEF "1.0"
*DESIGN "tau2020v2"
*PROGRAM "RandomNets"
*T_UNIT 1 NS
*C_UNIT 1 FF
*R_UNIT 1 OHM

*PORTS 


*D_NET net_0 11.8
*CONN
*I I1:Y O
*I I2:A I
*CAP
1 I1:Y 5.9
2 I2:A 5.9
*RES
2 I1:Y I2:A 347
*END

*D_NET net_1 343.2
*CONN
*I I3:Y O
*I I4:A I
*CAP
1 I3:Y 171.6
2 I4:A 171.6
*RES
2 I3:Y I4:A 4572
*END

*D_NET net_10 160
*CONN
*I I21:Y O
*I I22:A I
*CAP
1 I21:Y 80
2 I22:A 80
*RES
2 I21:Y I22:A 2286
*END

*D_NET net_11 644
*CONN
*I I23:Y O
*I I24:A I
*CAP
1 I23:Y 322
2 I24:A 322
*RES
2 I23:Y I24:A 420.8
*END

*D_NET net_12 191.4
*CONN
*I I25:Y O
*I I26:A I
*CAP
1 I25:Y 95.7
2 I26:A 95.7
*RES
2 I25:Y I26:A 9830
*END

*D_NET net_13 232.4
*CONN
*I I27:Y O
*I I28:A I
*CAP
1 I27:Y 116.2
2 I28:A 116.2
*RES
2 I27:Y I28:A 3191
*END

*D_NET net_14 448.5
*CONN
*I I29:Y O
*I I30:A I
*CAP
1 I29:Y 224.25
2 I30:A 224.25
*RES
2 I29:Y I30:A 380.7
*END

*D_NET net_15 308
*CONN
*I I31:Y O
*I I32:A I
*CAP
1 I31:Y 154
2 I32:A 154
*RES
2 I31:Y I32:A 1830
*END

*D_NET net_16 200.4
*CONN
*I I33:Y O
*I I34:A I
*CAP
1 I33:Y 100.2
2 I34:A 100.2
*RES
2 I33:Y I34:A 1290
*END

*D_NET net_17 24.8
*CONN
*I I35:Y O
*I I36:A I
*CAP
1 I35:Y 12.4
2 I36:A 12.4
*RES
2 I35:Y I36:A 414
*END

*D_NET net_18 272.8
*CONN
*I I37:Y O
*I I38:A I
*CAP
1 I37:Y 136.4
2 I38:A 136.4
*RES
2 I37:Y I38:A 1654
*END

*D_NET net_19 231.3
*CONN
*I I39:Y O
*I I40:A I
*CAP
1 I39:Y 115.65
2 I40:A 115.65
*RES
2 I39:Y I40:A 154400
*END

*D_NET net_2 335.4
*CONN
*I I5:Y O
*I I6:A I
*CAP
1 I5:Y 167.7
2 I6:A 167.7
*RES
2 I5:Y I6:A 1967
*END

*D_NET net_20 311.6
*CONN
*I I41:Y O
*I I42:A I
*CAP
1 I41:Y 155.8
2 I42:A 155.8
*RES
2 I41:Y I42:A 31400
*END

*D_NET net_21 261.9
*CONN
*I I43:Y O
*I I44:A I
*CAP
1 I43:Y 130.95
2 I44:A 130.95
*RES
2 I43:Y I44:A 174800
*END

*D_NET net_22 202.8
*CONN
*I I45:Y O
*I I46:A I
*CAP
1 I45:Y 101.4
2 I46:A 101.4
*RES
2 I45:Y I46:A 10410
*END

*D_NET net_23 34.8
*CONN
*I I47:Y O
*I I48:A I
*CAP
1 I47:Y 17.4
2 I48:A 17.4
*RES
2 I47:Y I48:A 3700
*END

*D_NET net_24 50
*CONN
*I I49:Y O
*I I50:A I
*CAP
1 I49:Y 25
2 I50:A 25
*RES
2 I49:Y I50:A 5220
*END

*D_NET net_25 184.8
*CONN
*I I51:Y O
*I I52:A I
*CAP
1 I51:Y 92.4
2 I52:A 92.4
*RES
2 I51:Y I52:A 18700
*END

*D_NET net_26 147.2
*CONN
*I I53:Y O
*I I54:A I
*CAP
1 I53:Y 73.6
2 I54:A 73.6
*RES
2 I53:Y I54:A 2114
*END

*D_NET net_27 166.2
*CONN
*I I55:Y O
*I I56:A I
*CAP
1 I55:Y 83.1
2 I56:A 83.1
*RES
2 I55:Y I56:A 111000
*END

*D_NET net_28 336.2
*CONN
*I I57:Y O
*I I58:A I
*CAP
1 I57:Y 168.1
2 I58:A 168.1
*RES
2 I57:Y I58:A 4476.5
*END

*D_NET net_29 17
*CONN
*I I59:Y O
*I I60:A I
*CAP
1 I59:Y 8.5
2 I60:A 8.5
*RES
2 I59:Y I60:A 294.4
*END

*D_NET net_3 238.2
*CONN
*I I7:Y O
*I I8:A I
*CAP
1 I7:Y 119.1
2 I8:A 119.1
*RES
2 I7:Y I8:A 24040
*END

*D_NET net_30 248.2
*CONN
*I I61:Y O
*I I62:A I
*CAP
1 I61:Y 124.1
2 I62:A 124.1
*RES
2 I61:Y I62:A 1529
*END

*D_NET net_31 870
*CONN
*I I63:Y O
*I I64:A I
*CAP
1 I63:Y 435
2 I64:A 435
*RES
2 I63:Y I64:A 466
*END

*D_NET net_32 155.6
*CONN
*I I65:Y O
*I I66:A I
*CAP
1 I65:Y 77.8
2 I66:A 77.8
*RES
2 I65:Y I66:A 1068
*END

*D_NET net_33 136.8
*CONN
*I I67:Y O
*I I68:A I
*CAP
1 I67:Y 68.4
2 I68:A 68.4
*RES
2 I67:Y I68:A 7110
*END

*D_NET net_34 218.4
*CONN
*I I69:Y O
*I I70:A I
*CAP
1 I69:Y 109.2
2 I70:A 109.2
*RES
2 I69:Y I70:A 11170
*END

*D_NET net_35 99.6
*CONN
*I I71:Y O
*I I72:A I
*CAP
1 I71:Y 49.8
2 I72:A 49.8
*RES
2 I71:Y I72:A 10180
*END

*D_NET net_36 393.8
*CONN
*I I73:Y O
*I I74:A I
*CAP
1 I73:Y 196.9
2 I74:A 196.9
*RES
2 I73:Y I74:A 19950
*END

*D_NET net_37 447
*CONN
*I I75:Y O
*I I76:A I
*CAP
1 I75:Y 223.5
2 I76:A 223.5
*RES
2 I75:Y I76:A 381.4
*END

*D_NET net_38 117.6
*CONN
*I I77:Y O
*I I78:A I
*CAP
1 I77:Y 58.8
2 I78:A 58.8
*RES
2 I77:Y I78:A 1744
*END

*D_NET net_39 160.8
*CONN
*I I79:Y O
*I I80:A I
*CAP
1 I79:Y 80.4
2 I80:A 80.4
*RES
2 I79:Y I80:A 8290
*END

*D_NET net_4 75.2
*CONN
*I I10:A I
*I I9:Y O
*CAP
1 I9:Y 37.6
2 I10:A 37.6
*RES
2 I9:Y I10:A 1214
*END

*D_NET net_40 269
*CONN
*I I81:Y O
*I I82:A I
*CAP
1 I81:Y 134.5
2 I82:A 134.5
*RES
2 I81:Y I82:A 1635
*END

*D_NET net_41 158.8
*CONN
*I I83:Y O
*I I84:A I
*CAP
1 I83:Y 79.4
2 I84:A 79.4
*RES
2 I83:Y I84:A 2259
*END

*D_NET net_42 290
*CONN
*I I85:Y O
*I I86:A I
*CAP
1 I85:Y 145
2 I86:A 145
*RES
2 I85:Y I86:A 1738
*END

*D_NET net_43 57
*CONN
*I I87:Y O
*I I88:A I
*CAP
1 I87:Y 28.5
2 I88:A 28.5
*RES
2 I87:Y I88:A 38200
*END

*D_NET net_44 202.4
*CONN
*I I89:Y O
*I I90:A I
*CAP
1 I89:Y 101.2
2 I90:A 101.2
*RES
2 I89:Y I90:A 2812
*END

*D_NET net_45 219.9
*CONN
*I I91:Y O
*I I92:A I
*CAP
1 I91:Y 109.95
2 I92:A 109.95
*RES
2 I91:Y I92:A 146800
*END

*D_NET net_46 104.4
*CONN
*I I93:Y O
*I I94:A I
*CAP
1 I93:Y 52.2
2 I94:A 52.2
*RES
2 I93:Y I94:A 5490
*END

*D_NET net_47 267.8
*CONN
*I I95:Y O
*I I96:A I
*CAP
1 I95:Y 133.9
2 I96:A 133.9
*RES
2 I95:Y I96:A 3633.5
*END

*D_NET net_48 209.5
*CONN
*I I97:Y O
*I I98:A I
*CAP
1 I97:Y 104.75
2 I98:A 104.75
*RES
2 I97:Y I98:A 333.9
*END

*D_NET net_49 957.5
*CONN
*I I100:A I
*I I99:Y O
*CAP
1 I99:Y 478.75
2 I100:A 478.75
*RES
2 I99:Y I100:A 482.5
*END

*D_NET net_5 36.2
*CONN
*I I11:Y O
*I I12:A I
*CAP
1 I11:Y 18.1
2 I12:A 18.1
*RES
2 I11:Y I12:A 471
*END

*D_NET net_50 250
*CONN
*I I101:Y O
*I I102:A I
*CAP
1 I101:Y 125
2 I102:A 125
*RES
2 I101:Y I102:A 25240
*END

*D_NET net_51 112.8
*CONN
*I I103:Y O
*I I104:A I
*CAP
1 I103:Y 56.4
2 I104:A 56.4
*RES
2 I103:Y I104:A 854
*END

*D_NET net_52 4.2
*CONN
*I I105:Y O
*I I106:A I
*CAP
1 I105:Y 2.1
2 I106:A 2.1
*RES
2 I105:Y I106:A 326.5
*END

*D_NET net_53 59
*CONN
*I I107:Y O
*I I108:A I
*CAP
1 I107:Y 29.5
2 I108:A 29.5
*RES
2 I107:Y I108:A 3220
*END

*D_NET net_54 83.6
*CONN
*I I109:Y O
*I I110:A I
*CAP
1 I109:Y 41.8
2 I110:A 41.8
*RES
2 I109:Y I110:A 706
*END

*D_NET net_55 234.45
*CONN
*I I111:Y O
*I I112:A I
*CAP
1 I111:Y 117.225
2 I112:A 117.225
*RES
2 I111:Y I112:A 156500
*END

*D_NET net_56 351.2
*CONN
*I I113:Y O
*I I114:A I
*CAP
1 I113:Y 175.6
2 I114:A 175.6
*RES
2 I113:Y I114:A 35360
*END

*D_NET net_57 43.6
*CONN
*I I115:Y O
*I I116:A I
*CAP
1 I115:Y 21.8
2 I116:A 21.8
*RES
2 I115:Y I116:A 4600
*END

*D_NET net_58 6.4
*CONN
*I I117:Y O
*I I118:A I
*CAP
1 I117:Y 3.2
2 I118:A 3.2
*RES
2 I117:Y I118:A 570
*END

*D_NET net_59 214.8
*CONN
*I I119:Y O
*I I120:A I
*CAP
1 I119:Y 107.4
2 I120:A 107.4
*RES
2 I119:Y I120:A 21700
*END

*D_NET net_6 320.2
*CONN
*I I13:Y O
*I I14:A I
*CAP
1 I13:Y 160.1
2 I14:A 160.1
*RES
2 I13:Y I14:A 16280
*END

*D_NET net_60 186.6
*CONN
*I I121:Y O
*I I122:A I
*CAP
1 I121:Y 93.3
2 I122:A 93.3
*RES
2 I121:Y I122:A 18900
*END

*D_NET net_61 110.8
*CONN
*I I123:Y O
*I I124:A I
*CAP
1 I123:Y 55.4
2 I124:A 55.4
*RES
2 I123:Y I124:A 5790
*END

*D_NET net_62 287.85
*CONN
*I I125:Y O
*I I126:A I
*CAP
1 I125:Y 143.925
2 I126:A 143.925
*RES
2 I125:Y I126:A 192100
*END

*D_NET net_63 341.6
*CONN
*I I127:Y O
*I I128:A I
*CAP
1 I127:Y 170.8
2 I128:A 170.8
*RES
2 I127:Y I128:A 34400
*END

*D_NET net_64 173.5
*CONN
*I I129:Y O
*I I130:A I
*CAP
1 I129:Y 86.75
2 I130:A 86.75
*RES
2 I129:Y I130:A 325.7
*END

*D_NET net_65 243.6
*CONN
*I I131:Y O
*I I132:A I
*CAP
1 I131:Y 121.8
2 I132:A 121.8
*RES
2 I131:Y I132:A 24600
*END

*D_NET net_66 696
*CONN
*I I133:Y O
*I I134:A I
*CAP
1 I133:Y 348
2 I134:A 348
*RES
2 I133:Y I134:A 430.2
*END

*D_NET net_67 375.4
*CONN
*I I135:Y O
*I I136:A I
*CAP
1 I135:Y 187.7
2 I136:A 187.7
*RES
2 I135:Y I136:A 4966.5
*END

*D_NET net_68 164.8
*CONN
*I I137:Y O
*I I138:A I
*CAP
1 I137:Y 82.4
2 I138:A 82.4
*RES
2 I137:Y I138:A 1112
*END

*D_NET net_69 256.6
*CONN
*I I139:Y O
*I I140:A I
*CAP
1 I139:Y 128.3
2 I140:A 128.3
*RES
2 I139:Y I140:A 13090
*END

*D_NET net_7 380.2
*CONN
*I I15:Y O
*I I16:A I
*CAP
1 I15:Y 190.1
2 I16:A 190.1
*RES
2 I15:Y I16:A 2189
*END

*D_NET net_70 207.2
*CONN
*I I141:Y O
*I I142:A I
*CAP
1 I141:Y 103.6
2 I142:A 103.6
*RES
2 I141:Y I142:A 1326
*END

*D_NET net_71 124.2
*CONN
*I I143:Y O
*I I144:A I
*CAP
1 I143:Y 62.1
2 I144:A 62.1
*RES
2 I143:Y I144:A 6480
*END

*D_NET net_72 391.8
*CONN
*I I145:Y O
*I I146:A I
*CAP
1 I145:Y 195.9
2 I146:A 195.9
*RES
2 I145:Y I146:A 2249
*END

*D_NET net_73 364.8
*CONN
*I I147:Y O
*I I148:A I
*CAP
1 I147:Y 182.4
2 I148:A 182.4
*RES
2 I147:Y I148:A 18500
*END

*D_NET net_74 135
*CONN
*I I149:Y O
*I I150:A I
*CAP
1 I149:Y 67.5
2 I150:A 67.5
*RES
2 I149:Y I150:A 965
*END

*D_NET net_75 125.6
*CONN
*I I151:Y O
*I I152:A I
*CAP
1 I151:Y 62.8
2 I152:A 62.8
*RES
2 I151:Y I152:A 6530
*END

*D_NET net_76 366.6
*CONN
*I I153:Y O
*I I154:A I
*CAP
1 I153:Y 183.3
2 I154:A 183.3
*RES
2 I153:Y I154:A 18590
*END

*D_NET net_77 67.4
*CONN
*I I155:Y O
*I I156:A I
*CAP
1 I155:Y 33.7
2 I156:A 33.7
*RES
2 I155:Y I156:A 6960
*END

*D_NET net_78 567.5
*CONN
*I I157:Y O
*I I158:A I
*CAP
1 I157:Y 283.75
2 I158:A 283.75
*RES
2 I157:Y I158:A 404.5
*END

*D_NET net_79 141.4
*CONN
*I I159:Y O
*I I160:A I
*CAP
1 I159:Y 70.7
2 I160:A 70.7
*RES
2 I159:Y I160:A 2049.5
*END

*D_NET net_8 3.5
*CONN
*I I17:Y O
*I I18:A I
*CAP
1 I17:Y 1.75
2 I18:A 1.75
*RES
2 I17:Y I18:A 291.7
*END

*D_NET net_80 249.2
*CONN
*I I161:Y O
*I I162:A I
*CAP
1 I161:Y 124.6
2 I162:A 124.6
*RES
2 I161:Y I162:A 25160
*END

*D_NET net_81 840
*CONN
*I I163:Y O
*I I164:A I
*CAP
1 I163:Y 420
2 I164:A 420
*RES
2 I163:Y I164:A 460
*END

*D_NET net_82 51.2
*CONN
*I I165:Y O
*I I166:A I
*CAP
1 I165:Y 25.6
2 I166:A 25.6
*RES
2 I165:Y I166:A 2810
*END

*D_NET net_83 67.4
*CONN
*I I167:Y O
*I I168:A I
*CAP
1 I167:Y 33.7
2 I168:A 33.7
*RES
2 I167:Y I168:A 1116.5
*END

*D_NET net_84 69.8
*CONN
*I I169:Y O
*I I170:A I
*CAP
1 I169:Y 34.9
2 I170:A 34.9
*RES
2 I169:Y I170:A 1146.5
*END

*D_NET net_85 264.4
*CONN
*I I171:Y O
*I I172:A I
*CAP
1 I171:Y 132.2
2 I172:A 132.2
*RES
2 I171:Y I172:A 3587
*END

*D_NET net_86 787
*CONN
*I I173:Y O
*I I174:A I
*CAP
1 I173:Y 393.5
2 I174:A 393.5
*RES
2 I173:Y I174:A 449.4
*END

*D_NET net_87 53.2
*CONN
*I I175:Y O
*I I176:A I
*CAP
1 I175:Y 26.6
2 I176:A 26.6
*RES
2 I175:Y I176:A 2920
*END

*D_NET net_88 166.2
*CONN
*I I177:Y O
*I I178:A I
*CAP
1 I177:Y 83.1
2 I178:A 83.1
*RES
2 I177:Y I178:A 16840
*END

*D_NET net_89 92.2
*CONN
*I I179:Y O
*I I180:A I
*CAP
1 I179:Y 46.1
2 I180:A 46.1
*RES
2 I179:Y I180:A 1426.5
*END

*D_NET net_9 208
*CONN
*I I19:Y O
*I I20:A I
*CAP
1 I19:Y 104
2 I20:A 104
*RES
2 I19:Y I20:A 2886
*END

*D_NET net_90 341.2
*CONN
*I I181:Y O
*I I182:A I
*CAP
1 I181:Y 170.6
2 I182:A 170.6
*RES
2 I181:Y I182:A 34340
*END

*D_NET net_91 91.8
*CONN
*I I183:Y O
*I I184:A I
*CAP
1 I183:Y 45.9
2 I184:A 45.9
*RES
2 I183:Y I184:A 749
*END

*D_NET net_92 281.4
*CONN
*I I185:Y O
*I I186:A I
*CAP
1 I185:Y 140.7
2 I186:A 140.7
*RES
2 I185:Y I186:A 3791.5
*END

*D_NET net_93 172.2
*CONN
*I I187:Y O
*I I188:A I
*CAP
1 I187:Y 86.1
2 I188:A 86.1
*RES
2 I187:Y I188:A 8860
*END

*D_NET net_94 68.6
*CONN
*I I189:Y O
*I I190:A I
*CAP
1 I189:Y 34.3
2 I190:A 34.3
*RES
2 I189:Y I190:A 631
*END

*D_NET net_95 151.2
*CONN
*I I191:Y O
*I I192:A I
*CAP
1 I191:Y 75.6
2 I192:A 75.6
*RES
2 I191:Y I192:A 7830
*END

*D_NET net_96 208
*CONN
*I I193:Y O
*I I194:A I
*CAP
1 I193:Y 104
2 I194:A 104
*RES
2 I193:Y I194:A 21040
*END

*D_NET net_97 63
*CONN
*I I195:Y O
*I I196:A I
*CAP
1 I195:Y 31.5
2 I196:A 31.5
*RES
2 I195:Y I196:A 605
*END

*D_NET net_98 962
*CONN
*I I197:Y O
*I I198:A I
*CAP
1 I197:Y 481
2 I198:A 481
*RES
2 I197:Y I198:A 484.4
*END

*D_NET net_99 253
*CONN
*I I199:Y O
*I I200:A I
*CAP
1 I199:Y 126.5
2 I200:A 126.5
*RES
2 I199:Y I200:A 12920
*END
