*SPEF "1.0"
*DESIGN "tau2020_asu"
*PROGRAM "RandomNets"
*T_UNIT 1 NS
*C_UNIT 1 FF
*R_UNIT 1 OHM

*PORTS 


*D_NET net_0 61.5
*CONN
*I I1:Y O
*I I2:A I
*CAP
1 I1:Y 30.75
2 I2:A 30.75
*RES
2 I1:Y I2:A 1046.75
*END

*D_NET net_1 142.8
*CONN
*I I3:Y O
*I I4:A I
*CAP
1 I3:Y 71.4
2 I4:A 71.4
*RES
2 I3:Y I4:A 2059
*END

*D_NET net_2 17.45
*CONN
*I I5:Y O
*I I6:A I
*CAP
1 I5:Y 8.725
2 I6:A 8.725
*RES
2 I5:Y I6:A 1965
*END

*D_NET net_3 146.6
*CONN
*I I7:Y O
*I I8:A I
*CAP
1 I7:Y 73.3
2 I8:A 73.3
*RES
2 I7:Y I8:A 14900
*END

*D_NET net_4 164
*CONN
*I I10:A I
*I I9:Y O
*CAP
1 I9:Y 82
2 I10:A 82
*RES
2 I9:Y I10:A 16620
*END

*D_NET net_5 18.0625
*CONN
*I I11:Y O
*I I12:A I
*CAP
1 I11:Y 9.03125
2 I12:A 9.03125
*RES
2 I11:Y I12:A 294.613
*END

*D_NET net_6 92.2
*CONN
*I I13:Y O
*I I14:A I
*CAP
1 I13:Y 46.1
2 I14:A 46.1
*RES
2 I13:Y I14:A 9460
*END

*D_NET net_7 82.35
*CONN
*I I15:Y O
*I I16:A I
*CAP
1 I15:Y 41.175
2 I16:A 41.175
*RES
2 I15:Y I16:A 55100
*END

*D_NET net_8 157.2
*CONN
*I I17:Y O
*I I18:A I
*CAP
1 I17:Y 78.6
2 I18:A 78.6
*RES
2 I17:Y I18:A 1076
*END

*D_NET net_9 13.1094
*CONN
*I I19:Y O
*I I20:A I
*CAP
1 I19:Y 6.55469
2 I20:A 6.55469
*RES
2 I19:Y I20:A 294.622
*END
