*SPEF "1.0"
*DESIGN "tau2020v1"
*PROGRAM "RandomNets"
*T_UNIT 1 NS
*C_UNIT 1 FF
*R_UNIT 1 OHM

*PORTS 


*D_NET net_0 284.6
*CONN
*I I1:ZN O
*I I2:A I
*CAP
1 I1:ZN 142.3
2 I2:A 142.3
*RES
2 I1:ZN I2:A 3839.5
*END

*D_NET net_1 143.6
*CONN
*I I3:ZN O
*I I4:A I
*CAP
1 I3:ZN 71.8
2 I4:A 71.8
*RES
2 I3:ZN I4:A 14600
*END

*D_NET net_10 114
*CONN
*I I21:ZN O
*I I22:A I
*CAP
1 I21:ZN 57
2 I22:A 57
*RES
2 I21:ZN I22:A 858
*END

*D_NET net_11 289.6
*CONN
*I I23:Z O
*I I24:A I
*CAP
1 I23:Z 144.8
2 I24:A 144.8
*RES
2 I23:Z I24:A 3894
*END

*D_NET net_12 339.2
*CONN
*I I25:Z O
*I I26:A I
*CAP
1 I25:Z 169.6
2 I26:A 169.6
*RES
2 I25:Z I26:A 34160
*END

*D_NET net_13 181.8
*CONN
*I I27:ZN O
*I I28:A I
*CAP
1 I27:ZN 90.9
2 I28:A 90.9
*RES
2 I27:ZN I28:A 9350
*END

*D_NET net_14 465.5
*CONN
*I I29:ZN O
*I I30:A I
*CAP
1 I29:ZN 232.75
2 I30:A 232.75
*RES
2 I29:ZN I30:A 385.1
*END

*D_NET net_15 207.4
*CONN
*I I31:ZN O
*I I32:A I
*CAP
1 I31:ZN 103.7
2 I32:A 103.7
*RES
2 I31:ZN I32:A 2874.5
*END

*D_NET net_16 65.2
*CONN
*I I33:ZN O
*I I34:A I
*CAP
1 I33:ZN 32.6
2 I34:A 32.6
*RES
2 I33:ZN I34:A 614
*END

*D_NET net_17 209.25
*CONN
*I I35:Z O
*I I36:A I
*CAP
1 I35:Z 104.625
2 I36:A 104.625
*RES
2 I35:Z I36:A 139700
*END

*D_NET net_18 151.8
*CONN
*I I37:ZN O
*I I38:A I
*CAP
1 I37:ZN 75.9
2 I38:A 75.9
*RES
2 I37:ZN I38:A 1047
*END

*D_NET net_19 372
*CONN
*I I39:Z O
*I I40:A I
*CAP
1 I39:Z 186
2 I40:A 186
*RES
2 I39:Z I40:A 18860
*END

*D_NET net_2 22.4
*CONN
*I I5:Z O
*I I6:A I
*CAP
1 I5:Z 11.2
2 I6:A 11.2
*RES
2 I5:Z I6:A 1390
*END

*D_NET net_20 109
*CONN
*I I41:ZN O
*I I42:A I
*CAP
1 I41:ZN 54.5
2 I42:A 54.5
*RES
2 I41:ZN I42:A 11140
*END

*D_NET net_21 243.6
*CONN
*I I43:Z O
*I I44:A I
*CAP
1 I43:Z 121.8
2 I44:A 121.8
*RES
2 I43:Z I44:A 3327
*END

*D_NET net_22 171.8
*CONN
*I I45:ZN O
*I I46:A I
*CAP
1 I45:ZN 85.9
2 I46:A 85.9
*RES
2 I45:ZN I46:A 1147
*END

*D_NET net_23 614
*CONN
*I I47:Z O
*I I48:A I
*CAP
1 I47:Z 307
2 I48:A 307
*RES
2 I47:Z I48:A 414.8
*END

*D_NET net_24 129.6
*CONN
*I I49:ZN O
*I I50:A I
*CAP
1 I49:ZN 64.8
2 I50:A 64.8
*RES
2 I49:ZN I50:A 86600
*END

*D_NET net_25 41.6
*CONN
*I I51:Z O
*I I52:A I
*CAP
1 I51:Z 20.8
2 I52:A 20.8
*RES
2 I51:Z I52:A 2350
*END

*D_NET net_26 371.5
*CONN
*I I53:ZN O
*I I54:A I
*CAP
1 I53:ZN 185.75
2 I54:A 185.75
*RES
2 I53:ZN I54:A 366.3
*END

*D_NET net_27 42.6
*CONN
*I I55:ZN O
*I I56:A I
*CAP
1 I55:ZN 21.3
2 I56:A 21.3
*RES
2 I55:ZN I56:A 814.5
*END

*D_NET net_28 165.2
*CONN
*I I57:ZN O
*I I58:A I
*CAP
1 I57:ZN 82.6
2 I58:A 82.6
*RES
2 I57:ZN I58:A 2343
*END

*D_NET net_29 44.8
*CONN
*I I59:ZN O
*I I60:A I
*CAP
1 I59:ZN 22.4
2 I60:A 22.4
*RES
2 I59:ZN I60:A 512
*END

*D_NET net_3 198.15
*CONN
*I I7:Z O
*I I8:A I
*CAP
1 I7:Z 99.075
2 I8:A 99.075
*RES
2 I7:Z I8:A 132300
*END

*D_NET net_30 247.5
*CONN
*I I61:ZN O
*I I62:A I
*CAP
1 I61:ZN 123.75
2 I62:A 123.75
*RES
2 I61:ZN I62:A 340.5
*END

*D_NET net_31 266.4
*CONN
*I I63:Z O
*I I64:A I
*CAP
1 I63:Z 133.2
2 I64:A 133.2
*RES
2 I63:Z I64:A 13570
*END

*D_NET net_32 216.4
*CONN
*I I65:ZN O
*I I66:A I
*CAP
1 I65:ZN 108.2
2 I66:A 108.2
*RES
2 I65:ZN I66:A 2991
*END

*D_NET net_33 5.4
*CONN
*I I67:ZN O
*I I68:A I
*CAP
1 I67:ZN 2.7
2 I68:A 2.7
*RES
2 I67:ZN I68:A 520
*END

*D_NET net_34 78.2
*CONN
*I I69:ZN O
*I I70:A I
*CAP
1 I69:ZN 39.1
2 I70:A 39.1
*RES
2 I69:ZN I70:A 1259.5
*END

*D_NET net_35 232
*CONN
*I I71:ZN O
*I I72:A I
*CAP
1 I71:ZN 116
2 I72:A 116
*RES
2 I71:ZN I72:A 11850
*END

*D_NET net_36 48.2
*CONN
*I I73:ZN O
*I I74:A I
*CAP
1 I73:ZN 24.1
2 I74:A 24.1
*RES
2 I73:ZN I74:A 529
*END

*D_NET net_37 17.4
*CONN
*I I75:ZN O
*I I76:A I
*CAP
1 I75:ZN 8.7
2 I76:A 8.7
*RES
2 I75:ZN I76:A 503.5
*END

*D_NET net_38 256.6
*CONN
*I I77:Z O
*I I78:A I
*CAP
1 I77:Z 128.3
2 I78:A 128.3
*RES
2 I77:Z I78:A 13080
*END

*D_NET net_39 11.2
*CONN
*I I79:Z O
*I I80:A I
*CAP
1 I79:Z 5.6
2 I80:A 5.6
*RES
2 I79:Z I80:A 1340
*END

*D_NET net_4 160
*CONN
*I I10:A I
*I I9:Z O
*CAP
1 I9:Z 80
2 I10:A 80
*RES
2 I9:Z I10:A 2278
*END

*D_NET net_40 311.8
*CONN
*I I81:ZN O
*I I82:A I
*CAP
1 I81:ZN 155.9
2 I82:A 155.9
*RES
2 I81:ZN I82:A 1847
*END

*D_NET net_41 827
*CONN
*I I83:Z O
*I I84:A I
*CAP
1 I83:Z 413.5
2 I84:A 413.5
*RES
2 I83:Z I84:A 456.4
*END

*D_NET net_42 62
*CONN
*I I85:Z O
*I I86:A I
*CAP
1 I85:Z 31
2 I86:A 31
*RES
2 I85:Z I86:A 600
*END

*D_NET net_43 290.6
*CONN
*I I87:ZN O
*I I88:A I
*CAP
1 I87:ZN 145.3
2 I88:A 145.3
*RES
2 I87:ZN I88:A 1741
*END

*D_NET net_44 266.2
*CONN
*I I89:ZN O
*I I90:A I
*CAP
1 I89:ZN 133.1
2 I90:A 133.1
*RES
2 I89:ZN I90:A 3605.5
*END

*D_NET net_45 243
*CONN
*I I91:ZN O
*I I92:A I
*CAP
1 I91:ZN 121.5
2 I92:A 121.5
*RES
2 I91:ZN I92:A 1505
*END

*D_NET net_46 94.8
*CONN
*I I93:ZN O
*I I94:A I
*CAP
1 I93:ZN 47.4
2 I94:A 47.4
*RES
2 I93:ZN I94:A 4990
*END

*D_NET net_47 390.2
*CONN
*I I95:ZN O
*I I96:A I
*CAP
1 I95:ZN 195.1
2 I96:A 195.1
*RES
2 I95:ZN I96:A 19780
*END

*D_NET net_48 318
*CONN
*I I97:ZN O
*I I98:A I
*CAP
1 I97:ZN 159
2 I98:A 159
*RES
2 I97:ZN I98:A 1880
*END

*D_NET net_49 260.4
*CONN
*I I100:A I
*I I99:ZN O
*CAP
1 I99:ZN 130.2
2 I100:A 130.2
*RES
2 I99:ZN I100:A 3529
*END

*D_NET net_5 954.5
*CONN
*I I11:ZN O
*I I12:A I
*CAP
1 I11:ZN 477.25
2 I12:A 477.25
*RES
2 I11:ZN I12:A 482.9
*END

*D_NET net_50 73.2
*CONN
*I I101:Z O
*I I102:A I
*CAP
1 I101:Z 36.6
2 I102:A 36.6
*RES
2 I101:Z I102:A 654
*END

*D_NET net_51 285
*CONN
*I I103:Z O
*I I104:A I
*CAP
1 I103:Z 142.5
2 I104:A 142.5
*RES
2 I103:Z I104:A 14510
*END

*D_NET net_52 118.6
*CONN
*I I105:ZN O
*I I106:A I
*CAP
1 I105:ZN 59.3
2 I106:A 59.3
*RES
2 I105:ZN I106:A 12100
*END

*D_NET net_53 314.6
*CONN
*I I107:ZN O
*I I108:A I
*CAP
1 I107:ZN 157.3
2 I108:A 157.3
*RES
2 I107:ZN I108:A 4206.5
*END

*D_NET net_54 352
*CONN
*I I109:ZN O
*I I110:A I
*CAP
1 I109:ZN 176
2 I110:A 176
*RES
2 I109:ZN I110:A 2048
*END

*D_NET net_55 169.2
*CONN
*I I111:ZN O
*I I112:A I
*CAP
1 I111:ZN 84.6
2 I112:A 84.6
*RES
2 I111:ZN I112:A 2389
*END

*D_NET net_56 281.8
*CONN
*I I113:ZN O
*I I114:A I
*CAP
1 I113:ZN 140.9
2 I114:A 140.9
*RES
2 I113:ZN I114:A 1697
*END

*D_NET net_57 492
*CONN
*I I115:ZN O
*I I116:A I
*CAP
1 I115:ZN 246
2 I116:A 246
*RES
2 I115:ZN I116:A 389.4
*END

*D_NET net_58 232
*CONN
*I I117:ZN O
*I I118:A I
*CAP
1 I117:ZN 116
2 I118:A 116
*RES
2 I117:ZN I118:A 1448
*END

*D_NET net_59 163.2
*CONN
*I I119:ZN O
*I I120:A I
*CAP
1 I119:ZN 81.6
2 I120:A 81.6
*RES
2 I119:ZN I120:A 1106
*END

*D_NET net_6 317.6
*CONN
*I I13:ZN O
*I I14:A I
*CAP
1 I13:ZN 158.8
2 I14:A 158.8
*RES
2 I13:ZN I14:A 16150
*END

*D_NET net_60 286.2
*CONN
*I I121:Z O
*I I122:A I
*CAP
1 I121:Z 143.1
2 I122:A 143.1
*RES
2 I121:Z I122:A 28860
*END

*D_NET net_61 333.2
*CONN
*I I123:Z O
*I I124:A I
*CAP
1 I123:Z 166.6
2 I124:A 166.6
*RES
2 I123:Z I124:A 1954
*END

*D_NET net_62 316.4
*CONN
*I I125:ZN O
*I I126:A I
*CAP
1 I125:ZN 158.2
2 I126:A 158.2
*RES
2 I125:ZN I126:A 31860
*END

*D_NET net_63 138.2
*CONN
*I I127:ZN O
*I I128:A I
*CAP
1 I127:ZN 69.1
2 I128:A 69.1
*RES
2 I127:ZN I128:A 979
*END

*D_NET net_64 390
*CONN
*I I129:ZN O
*I I130:A I
*CAP
1 I129:ZN 195
2 I130:A 195
*RES
2 I129:ZN I130:A 5149
*END

*D_NET net_65 64.6
*CONN
*I I131:ZN O
*I I132:A I
*CAP
1 I131:ZN 32.3
2 I132:A 32.3
*RES
2 I131:ZN I132:A 3490
*END

*D_NET net_66 44.4
*CONN
*I I133:Z O
*I I134:A I
*CAP
1 I133:Z 22.2
2 I134:A 22.2
*RES
2 I133:Z I134:A 4660
*END

*D_NET net_67 251.8
*CONN
*I I135:ZN O
*I I136:A I
*CAP
1 I135:ZN 125.9
2 I136:A 125.9
*RES
2 I135:ZN I136:A 25420
*END

*D_NET net_68 109.35
*CONN
*I I137:Z O
*I I138:A I
*CAP
1 I137:Z 54.675
2 I138:A 54.675
*RES
2 I137:Z I138:A 73100
*END

*D_NET net_69 382
*CONN
*I I139:ZN O
*I I140:A I
*CAP
1 I139:ZN 191
2 I140:A 191
*RES
2 I139:ZN I140:A 5057
*END

*D_NET net_7 319.4
*CONN
*I I15:Z O
*I I16:A I
*CAP
1 I15:Z 159.7
2 I16:A 159.7
*RES
2 I15:Z I16:A 16220
*END

*D_NET net_70 141.8
*CONN
*I I141:ZN O
*I I142:A I
*CAP
1 I141:ZN 70.9
2 I142:A 70.9
*RES
2 I141:ZN I142:A 14420
*END

*D_NET net_71 236.2
*CONN
*I I143:Z O
*I I144:A I
*CAP
1 I143:Z 118.1
2 I144:A 118.1
*RES
2 I143:Z I144:A 23860
*END

*D_NET net_72 773.5
*CONN
*I I145:ZN O
*I I146:A I
*CAP
1 I145:ZN 386.75
2 I146:A 386.75
*RES
2 I145:ZN I146:A 445.7
*END

*D_NET net_73 211.4
*CONN
*I I147:ZN O
*I I148:A I
*CAP
1 I147:ZN 105.7
2 I148:A 105.7
*RES
2 I147:ZN I148:A 2920.5
*END

*D_NET net_74 3
*CONN
*I I149:ZN O
*I I150:A I
*CAP
1 I149:ZN 1.5
2 I150:A 1.5
*RES
2 I149:ZN I150:A 303
*END

*D_NET net_75 385.6
*CONN
*I I151:Z O
*I I152:A I
*CAP
1 I151:Z 192.8
2 I152:A 192.8
*RES
2 I151:Z I152:A 19540
*END

*D_NET net_76 187.2
*CONN
*I I153:ZN O
*I I154:A I
*CAP
1 I153:ZN 93.6
2 I154:A 93.6
*RES
2 I153:ZN I154:A 2626
*END

*D_NET net_77 27.9
*CONN
*I I155:Z O
*I I156:A I
*CAP
1 I155:Z 13.95
2 I156:A 13.95
*RES
2 I155:Z I156:A 18800
*END

*D_NET net_78 112.4
*CONN
*I I157:ZN O
*I I158:A I
*CAP
1 I157:ZN 56.2
2 I158:A 56.2
*RES
2 I157:ZN I158:A 1687
*END

*D_NET net_79 258
*CONN
*I I159:ZN O
*I I160:A I
*CAP
1 I159:ZN 129
2 I160:A 129
*RES
2 I159:ZN I160:A 13170
*END

*D_NET net_8 196.4
*CONN
*I I17:ZN O
*I I18:A I
*CAP
1 I17:ZN 98.2
2 I18:A 98.2
*RES
2 I17:ZN I18:A 10070
*END

*D_NET net_80 0.2
*CONN
*I I161:Z O
*I I162:A I
*CAP
1 I161:Z 0.1
2 I162:A 0.1
*RES
2 I161:Z I162:A 240
*END

*D_NET net_81 363.5
*CONN
*I I163:Z O
*I I164:A I
*CAP
1 I163:Z 181.75
2 I164:A 181.75
*RES
2 I163:Z I164:A 363.7
*END

*D_NET net_82 353.4
*CONN
*I I165:Z O
*I I166:A I
*CAP
1 I165:Z 176.7
2 I166:A 176.7
*RES
2 I165:Z I166:A 2055
*END

*D_NET net_83 42.45
*CONN
*I I167:ZN O
*I I168:A I
*CAP
1 I167:ZN 21.225
2 I168:A 21.225
*RES
2 I167:ZN I168:A 28500
*END

*D_NET net_84 280.6
*CONN
*I I169:Z O
*I I170:A I
*CAP
1 I169:Z 140.3
2 I170:A 140.3
*RES
2 I169:Z I170:A 1693
*END

*D_NET net_85 201.6
*CONN
*I I171:Z O
*I I172:A I
*CAP
1 I171:Z 100.8
2 I172:A 100.8
*RES
2 I171:Z I172:A 20400
*END

*D_NET net_86 230.55
*CONN
*I I173:Z O
*I I174:A I
*CAP
1 I173:Z 115.275
2 I174:A 115.275
*RES
2 I173:Z I174:A 153900
*END

*D_NET net_87 71.6
*CONN
*I I175:ZN O
*I I176:A I
*CAP
1 I175:ZN 35.8
2 I176:A 35.8
*RES
2 I175:ZN I176:A 648
*END

*D_NET net_88 392.6
*CONN
*I I177:Z O
*I I178:A I
*CAP
1 I177:Z 196.3
2 I178:A 196.3
*RES
2 I177:Z I178:A 19900
*END

*D_NET net_89 200.1
*CONN
*I I179:ZN O
*I I180:A I
*CAP
1 I179:ZN 100.05
2 I180:A 100.05
*RES
2 I179:ZN I180:A 133600
*END

*D_NET net_9 58.4
*CONN
*I I19:Z O
*I I20:A I
*CAP
1 I19:Z 29.2
2 I20:A 29.2
*RES
2 I19:Z I20:A 1016
*END

*D_NET net_90 281
*CONN
*I I181:ZN O
*I I182:A I
*CAP
1 I181:ZN 140.5
2 I182:A 140.5
*RES
2 I181:ZN I182:A 347.2
*END

*D_NET net_91 62.4
*CONN
*I I183:ZN O
*I I184:A I
*CAP
1 I183:ZN 31.2
2 I184:A 31.2
*RES
2 I183:ZN I184:A 3380
*END

*D_NET net_92 59.55
*CONN
*I I185:Z O
*I I186:A I
*CAP
1 I185:Z 29.775
2 I186:A 29.775
*RES
2 I185:Z I186:A 39900
*END

*D_NET net_93 260.2
*CONN
*I I187:ZN O
*I I188:A I
*CAP
1 I187:ZN 130.1
2 I188:A 130.1
*RES
2 I187:ZN I188:A 1591
*END

*D_NET net_94 103
*CONN
*I I189:ZN O
*I I190:A I
*CAP
1 I189:ZN 51.5
2 I190:A 51.5
*RES
2 I189:ZN I190:A 10540
*END

*D_NET net_95 35.4
*CONN
*I I191:Z O
*I I192:A I
*CAP
1 I191:Z 17.7
2 I192:A 17.7
*RES
2 I191:Z I192:A 3760
*END

*D_NET net_96 277.2
*CONN
*I I193:ZN O
*I I194:A I
*CAP
1 I193:ZN 138.6
2 I194:A 138.6
*RES
2 I193:ZN I194:A 185000
*END

*D_NET net_97 235
*CONN
*I I195:Z O
*I I196:A I
*CAP
1 I195:Z 117.5
2 I196:A 117.5
*RES
2 I195:Z I196:A 12020
*END

*D_NET net_98 166.6
*CONN
*I I197:ZN O
*I I198:A I
*CAP
1 I197:ZN 83.3
2 I198:A 83.3
*RES
2 I197:ZN I198:A 8580
*END

*D_NET net_99 243.2
*CONN
*I I199:Z O
*I I200:A I
*CAP
1 I199:Z 121.6
2 I200:A 121.6
*RES
2 I199:Z I200:A 3326
*END
