*SPEF "1.0"
*DESIGN "tau2020v2"
*PROGRAM "RandomNets"
*T_UNIT 1 NS
*C_UNIT 1 FF
*R_UNIT 1 OHM

*PORTS 


*D_NET net_0 118.6
*CONN
*I I1:Y O
*I I2:A I
*CAP
1 I1:Y 59.3
2 I2:A 59.3
*RES
2 I1:Y I2:A 6200
*END

*D_NET net_1 124
*CONN
*I I3:Y O
*I I4:A I
*CAP
1 I3:Y 62
2 I4:A 62
*RES
2 I3:Y I4:A 6460
*END

*D_NET net_10 192.6
*CONN
*I I21:Y O
*I I22:A I
*CAP
1 I21:Y 96.3
2 I22:A 96.3
*RES
2 I21:Y I22:A 1253
*END

*D_NET net_11 443
*CONN
*I I23:Y O
*I I24:A I
*CAP
1 I23:Y 221.5
2 I24:A 221.5
*RES
2 I23:Y I24:A 380.6
*END

*D_NET net_12 34.2
*CONN
*I I25:Y O
*I I26:A I
*CAP
1 I25:Y 17.1
2 I26:A 17.1
*RES
2 I25:Y I26:A 459
*END

*D_NET net_13 136.6
*CONN
*I I27:Y O
*I I28:A I
*CAP
1 I27:Y 68.3
2 I28:A 68.3
*RES
2 I27:Y I28:A 13880
*END

*D_NET net_14 62.4
*CONN
*I I29:Y O
*I I30:A I
*CAP
1 I29:Y 31.2
2 I30:A 31.2
*RES
2 I29:Y I30:A 3380
*END

*D_NET net_15 53.6
*CONN
*I I31:Y O
*I I32:A I
*CAP
1 I31:Y 26.8
2 I32:A 26.8
*RES
2 I31:Y I32:A 5580
*END

*D_NET net_16 180.4
*CONN
*I I33:Y O
*I I34:A I
*CAP
1 I33:Y 90.2
2 I34:A 90.2
*RES
2 I33:Y I34:A 2537
*END

*D_NET net_17 183.8
*CONN
*I I35:Y O
*I I36:A I
*CAP
1 I35:Y 91.9
2 I36:A 91.9
*RES
2 I35:Y I36:A 1209
*END

*D_NET net_18 413.5
*CONN
*I I37:Y O
*I I38:A I
*CAP
1 I37:Y 206.75
2 I38:A 206.75
*RES
2 I37:Y I38:A 374.7
*END

*D_NET net_19 69.4
*CONN
*I I39:Y O
*I I40:A I
*CAP
1 I39:Y 34.7
2 I40:A 34.7
*RES
2 I39:Y I40:A 3740
*END

*D_NET net_2 145.2
*CONN
*I I5:Y O
*I I6:A I
*CAP
1 I5:Y 72.6
2 I6:A 72.6
*RES
2 I5:Y I6:A 14760
*END

*D_NET net_20 305
*CONN
*I I41:Y O
*I I42:A I
*CAP
1 I41:Y 152.5
2 I42:A 152.5
*RES
2 I41:Y I42:A 353
*END

*D_NET net_21 15
*CONN
*I I43:Y O
*I I44:A I
*CAP
1 I43:Y 7.5
2 I44:A 7.5
*RES
2 I43:Y I44:A 465.5
*END

*D_NET net_22 233.5
*CONN
*I I45:Y O
*I I46:A I
*CAP
1 I45:Y 116.75
2 I46:A 116.75
*RES
2 I45:Y I46:A 337.7
*END

*D_NET net_23 118.8
*CONN
*I I47:Y O
*I I48:A I
*CAP
1 I47:Y 59.4
2 I48:A 59.4
*RES
2 I47:Y I48:A 12100
*END

*D_NET net_24 71
*CONN
*I I49:Y O
*I I50:A I
*CAP
1 I49:Y 35.5
2 I50:A 35.5
*RES
2 I49:Y I50:A 3800
*END

*D_NET net_25 136.6
*CONN
*I I51:Y O
*I I52:A I
*CAP
1 I51:Y 68.3
2 I52:A 68.3
*RES
2 I51:Y I52:A 1989.5
*END

*D_NET net_26 33.6
*CONN
*I I53:Y O
*I I54:A I
*CAP
1 I53:Y 16.8
2 I54:A 16.8
*RES
2 I53:Y I54:A 698
*END

*D_NET net_27 93.4
*CONN
*I I55:Y O
*I I56:A I
*CAP
1 I55:Y 46.7
2 I56:A 46.7
*RES
2 I55:Y I56:A 4920
*END

*D_NET net_28 287.5
*CONN
*I I57:Y O
*I I58:A I
*CAP
1 I57:Y 143.75
2 I58:A 143.75
*RES
2 I57:Y I58:A 349.5
*END

*D_NET net_29 20
*CONN
*I I59:Y O
*I I60:A I
*CAP
1 I59:Y 10
2 I60:A 10
*RES
2 I59:Y I60:A 295
*END

*D_NET net_3 175.8
*CONN
*I I7:Y O
*I I8:A I
*CAP
1 I7:Y 87.9
2 I8:A 87.9
*RES
2 I7:Y I8:A 17800
*END

*D_NET net_30 68.4
*CONN
*I I61:Y O
*I I62:A I
*CAP
1 I61:Y 34.2
2 I62:A 34.2
*RES
2 I61:Y I62:A 3690
*END

*D_NET net_31 10
*CONN
*I I63:Y O
*I I64:A I
*CAP
1 I63:Y 5
2 I64:A 5
*RES
2 I63:Y I64:A 411
*END

*D_NET net_32 132
*CONN
*I I65:Y O
*I I66:A I
*CAP
1 I65:Y 66
2 I66:A 66
*RES
2 I65:Y I66:A 6870
*END

*D_NET net_33 11.6
*CONN
*I I67:Y O
*I I68:A I
*CAP
1 I67:Y 5.8
2 I68:A 5.8
*RES
2 I67:Y I68:A 427
*END

*D_NET net_34 193.2
*CONN
*I I69:Y O
*I I70:A I
*CAP
1 I69:Y 96.6
2 I70:A 96.6
*RES
2 I69:Y I70:A 9930
*END

*D_NET net_35 134.2
*CONN
*I I71:Y O
*I I72:A I
*CAP
1 I71:Y 67.1
2 I72:A 67.1
*RES
2 I71:Y I72:A 1951.5
*END

*D_NET net_36 189.8
*CONN
*I I73:Y O
*I I74:A I
*CAP
1 I73:Y 94.9
2 I74:A 94.9
*RES
2 I73:Y I74:A 1237
*END

*D_NET net_37 15
*CONN
*I I75:Y O
*I I76:A I
*CAP
1 I75:Y 7.5
2 I76:A 7.5
*RES
2 I75:Y I76:A 1740
*END

*D_NET net_38 16.6
*CONN
*I I77:Y O
*I I78:A I
*CAP
1 I77:Y 8.3
2 I78:A 8.3
*RES
2 I77:Y I78:A 1090
*END

*D_NET net_39 111.6
*CONN
*I I79:Y O
*I I80:A I
*CAP
1 I79:Y 55.8
2 I80:A 55.8
*RES
2 I79:Y I80:A 848
*END

*D_NET net_4 34.4
*CONN
*I I10:A I
*I I9:Y O
*CAP
1 I9:Y 17.2
2 I10:A 17.2
*RES
2 I9:Y I10:A 3660
*END

*D_NET net_40 494.5
*CONN
*I I81:Y O
*I I82:A I
*CAP
1 I81:Y 247.25
2 I82:A 247.25
*RES
2 I81:Y I82:A 390.9
*END

*D_NET net_41 58.6
*CONN
*I I83:Y O
*I I84:A I
*CAP
1 I83:Y 29.3
2 I84:A 29.3
*RES
2 I83:Y I84:A 1014.5
*END

*D_NET net_42 19.6
*CONN
*I I85:Y O
*I I86:A I
*CAP
1 I85:Y 9.8
2 I86:A 9.8
*RES
2 I85:Y I86:A 386
*END

*D_NET net_43 38.8
*CONN
*I I87:Y O
*I I88:A I
*CAP
1 I87:Y 19.4
2 I88:A 19.4
*RES
2 I87:Y I88:A 763
*END

*D_NET net_44 326
*CONN
*I I89:Y O
*I I90:A I
*CAP
1 I89:Y 163
2 I90:A 163
*RES
2 I89:Y I90:A 357.2
*END

*D_NET net_45 137.85
*CONN
*I I91:Y O
*I I92:A I
*CAP
1 I91:Y 68.925
2 I92:A 68.925
*RES
2 I91:Y I92:A 92100
*END

*D_NET net_46 187.8
*CONN
*I I93:Y O
*I I94:A I
*CAP
1 I93:Y 93.9
2 I94:A 93.9
*RES
2 I93:Y I94:A 9650
*END

*D_NET net_47 105.6
*CONN
*I I95:Y O
*I I96:A I
*CAP
1 I95:Y 52.8
2 I96:A 52.8
*RES
2 I95:Y I96:A 5530
*END

*D_NET net_48 5
*CONN
*I I97:Y O
*I I98:A I
*CAP
1 I97:Y 2.5
2 I98:A 2.5
*RES
2 I97:Y I98:A 340.5
*END

*D_NET net_49 86
*CONN
*I I100:A I
*I I99:Y O
*CAP
1 I99:Y 43
2 I100:A 43
*RES
2 I99:Y I100:A 309.2
*END

*D_NET net_5 113
*CONN
*I I11:Y O
*I I12:A I
*CAP
1 I11:Y 56.5
2 I12:A 56.5
*RES
2 I11:Y I12:A 5920
*END

*D_NET net_50 49.2
*CONN
*I I101:Y O
*I I102:A I
*CAP
1 I101:Y 24.6
2 I102:A 24.6
*RES
2 I101:Y I102:A 2720
*END

*D_NET net_51 117.8
*CONN
*I I103:Y O
*I I104:A I
*CAP
1 I103:Y 58.9
2 I104:A 58.9
*RES
2 I103:Y I104:A 879
*END

*D_NET net_52 15
*CONN
*I I105:Y O
*I I106:A I
*CAP
1 I105:Y 7.5
2 I106:A 7.5
*RES
2 I105:Y I106:A 10200
*END

*D_NET net_53 79.6
*CONN
*I I107:Y O
*I I108:A I
*CAP
1 I107:Y 39.8
2 I108:A 39.8
*RES
2 I107:Y I108:A 4250
*END

*D_NET net_54 206.5
*CONN
*I I109:Y O
*I I110:A I
*CAP
1 I109:Y 103.25
2 I110:A 103.25
*RES
2 I109:Y I110:A 333.3
*END

*D_NET net_55 71
*CONN
*I I111:Y O
*I I112:A I
*CAP
1 I111:Y 35.5
2 I112:A 35.5
*RES
2 I111:Y I112:A 1161.5
*END

*D_NET net_56 64.6
*CONN
*I I113:Y O
*I I114:A I
*CAP
1 I113:Y 32.3
2 I114:A 32.3
*RES
2 I113:Y I114:A 1093.5
*END

*D_NET net_57 57
*CONN
*I I115:Y O
*I I116:A I
*CAP
1 I115:Y 28.5
2 I116:A 28.5
*RES
2 I115:Y I116:A 302.4
*END

*D_NET net_58 159
*CONN
*I I117:Y O
*I I118:A I
*CAP
1 I117:Y 79.5
2 I118:A 79.5
*RES
2 I117:Y I118:A 8220
*END

*D_NET net_59 168.5
*CONN
*I I119:Y O
*I I120:A I
*CAP
1 I119:Y 84.25
2 I120:A 84.25
*RES
2 I119:Y I120:A 324.7
*END

*D_NET net_6 119.85
*CONN
*I I13:Y O
*I I14:A I
*CAP
1 I13:Y 59.925
2 I14:A 59.925
*RES
2 I13:Y I14:A 80100
*END

*D_NET net_60 87.8
*CONN
*I I121:Y O
*I I122:A I
*CAP
1 I121:Y 43.9
2 I122:A 43.9
*RES
2 I121:Y I122:A 4650
*END

*D_NET net_61 87.9
*CONN
*I I123:Y O
*I I124:A I
*CAP
1 I123:Y 43.95
2 I124:A 43.95
*RES
2 I123:Y I124:A 58800
*END

*D_NET net_62 163.4
*CONN
*I I125:Y O
*I I126:A I
*CAP
1 I125:Y 81.7
2 I126:A 81.7
*RES
2 I125:Y I126:A 8440
*END

*D_NET net_63 82.8
*CONN
*I I127:Y O
*I I128:A I
*CAP
1 I127:Y 41.4
2 I128:A 41.4
*RES
2 I127:Y I128:A 4410
*END

*D_NET net_64 145.2
*CONN
*I I129:Y O
*I I130:A I
*CAP
1 I129:Y 72.6
2 I130:A 72.6
*RES
2 I129:Y I130:A 97000
*END

*D_NET net_65 187.6
*CONN
*I I131:Y O
*I I132:A I
*CAP
1 I131:Y 93.8
2 I132:A 93.8
*RES
2 I131:Y I132:A 2631
*END

*D_NET net_66 326
*CONN
*I I133:Y O
*I I134:A I
*CAP
1 I133:Y 163
2 I134:A 163
*RES
2 I133:Y I134:A 356.2
*END

*D_NET net_67 116.2
*CONN
*I I135:Y O
*I I136:A I
*CAP
1 I135:Y 58.1
2 I136:A 58.1
*RES
2 I135:Y I136:A 869
*END

*D_NET net_68 58
*CONN
*I I137:Y O
*I I138:A I
*CAP
1 I137:Y 29
2 I138:A 29
*RES
2 I137:Y I138:A 1003
*END

*D_NET net_69 51
*CONN
*I I139:Y O
*I I140:A I
*CAP
1 I139:Y 25.5
2 I140:A 25.5
*RES
2 I139:Y I140:A 923.5
*END

*D_NET net_7 40.2
*CONN
*I I15:Y O
*I I16:A I
*CAP
1 I15:Y 20.1
2 I16:A 20.1
*RES
2 I15:Y I16:A 2260
*END

*D_NET net_70 45.4
*CONN
*I I141:Y O
*I I142:A I
*CAP
1 I141:Y 22.7
2 I142:A 22.7
*RES
2 I141:Y I142:A 517
*END

*D_NET net_71 106.8
*CONN
*I I143:Y O
*I I144:A I
*CAP
1 I143:Y 53.4
2 I144:A 53.4
*RES
2 I143:Y I144:A 5590
*END

*D_NET net_72 146.4
*CONN
*I I145:Y O
*I I146:A I
*CAP
1 I145:Y 73.2
2 I146:A 73.2
*RES
2 I145:Y I146:A 1022
*END

*D_NET net_73 112.8
*CONN
*I I147:Y O
*I I148:A I
*CAP
1 I147:Y 56.4
2 I148:A 56.4
*RES
2 I147:Y I148:A 1684
*END

*D_NET net_74 185
*CONN
*I I149:Y O
*I I150:A I
*CAP
1 I149:Y 92.5
2 I150:A 92.5
*RES
2 I149:Y I150:A 18720
*END

*D_NET net_75 163.5
*CONN
*I I151:Y O
*I I152:A I
*CAP
1 I151:Y 81.75
2 I152:A 81.75
*RES
2 I151:Y I152:A 324.7
*END

*D_NET net_76 179.6
*CONN
*I I153:Y O
*I I154:A I
*CAP
1 I153:Y 89.8
2 I154:A 89.8
*RES
2 I153:Y I154:A 18180
*END

*D_NET net_77 83.2
*CONN
*I I155:Y O
*I I156:A I
*CAP
1 I155:Y 41.6
2 I156:A 41.6
*RES
2 I155:Y I156:A 706
*END

*D_NET net_78 107.6
*CONN
*I I157:Y O
*I I158:A I
*CAP
1 I157:Y 53.8
2 I158:A 53.8
*RES
2 I157:Y I158:A 11000
*END

*D_NET net_79 132.4
*CONN
*I I159:Y O
*I I160:A I
*CAP
1 I159:Y 66.2
2 I160:A 66.2
*RES
2 I159:Y I160:A 6870
*END

*D_NET net_8 150
*CONN
*I I17:Y O
*I I18:A I
*CAP
1 I17:Y 75
2 I18:A 75
*RES
2 I17:Y I18:A 321
*END

*D_NET net_80 98.2
*CONN
*I I161:Y O
*I I162:A I
*CAP
1 I161:Y 49.1
2 I162:A 49.1
*RES
2 I161:Y I162:A 5170
*END

*D_NET net_81 98.8
*CONN
*I I163:Y O
*I I164:A I
*CAP
1 I163:Y 49.4
2 I164:A 49.4
*RES
2 I163:Y I164:A 784
*END

*D_NET net_82 182.4
*CONN
*I I165:Y O
*I I166:A I
*CAP
1 I165:Y 91.2
2 I166:A 91.2
*RES
2 I165:Y I166:A 18460
*END

*D_NET net_83 193
*CONN
*I I167:Y O
*I I168:A I
*CAP
1 I167:Y 96.5
2 I168:A 96.5
*RES
2 I167:Y I168:A 9920
*END

*D_NET net_84 25.2
*CONN
*I I169:Y O
*I I170:A I
*CAP
1 I169:Y 12.6
2 I170:A 12.6
*RES
2 I169:Y I170:A 17000
*END

*D_NET net_85 139
*CONN
*I I171:Y O
*I I172:A I
*CAP
1 I171:Y 69.5
2 I172:A 69.5
*RES
2 I171:Y I172:A 7200
*END

*D_NET net_86 112.4
*CONN
*I I173:Y O
*I I174:A I
*CAP
1 I173:Y 56.2
2 I174:A 56.2
*RES
2 I173:Y I174:A 1683
*END

*D_NET net_87 175.4
*CONN
*I I175:Y O
*I I176:A I
*CAP
1 I175:Y 87.7
2 I176:A 87.7
*RES
2 I175:Y I176:A 2474.5
*END

*D_NET net_88 79.8
*CONN
*I I177:Y O
*I I178:A I
*CAP
1 I177:Y 39.9
2 I178:A 39.9
*RES
2 I177:Y I178:A 4260
*END

*D_NET net_89 3.2
*CONN
*I I179:Y O
*I I180:A I
*CAP
1 I179:Y 1.6
2 I180:A 1.6
*RES
2 I179:Y I180:A 304
*END

*D_NET net_9 195.6
*CONN
*I I19:Y O
*I I20:A I
*CAP
1 I19:Y 97.8
2 I20:A 97.8
*RES
2 I19:Y I20:A 10030
*END

*D_NET net_90 193.4
*CONN
*I I181:Y O
*I I182:A I
*CAP
1 I181:Y 96.7
2 I182:A 96.7
*RES
2 I181:Y I182:A 1257
*END

*D_NET net_91 52.6
*CONN
*I I183:Y O
*I I184:A I
*CAP
1 I183:Y 26.3
2 I184:A 26.3
*RES
2 I183:Y I184:A 551
*END

*D_NET net_92 155.4
*CONN
*I I185:Y O
*I I186:A I
*CAP
1 I185:Y 77.7
2 I186:A 77.7
*RES
2 I185:Y I186:A 2228.5
*END

*D_NET net_93 87.2
*CONN
*I I187:Y O
*I I188:A I
*CAP
1 I187:Y 43.6
2 I188:A 43.6
*RES
2 I187:Y I188:A 1364
*END

*D_NET net_94 21.6
*CONN
*I I189:Y O
*I I190:A I
*CAP
1 I189:Y 10.8
2 I190:A 10.8
*RES
2 I189:Y I190:A 544
*END

*D_NET net_95 427
*CONN
*I I191:Y O
*I I192:A I
*CAP
1 I191:Y 213.5
2 I192:A 213.5
*RES
2 I191:Y I192:A 377.4
*END

*D_NET net_96 105.75
*CONN
*I I193:Y O
*I I194:A I
*CAP
1 I193:Y 52.875
2 I194:A 52.875
*RES
2 I193:Y I194:A 70700
*END

*D_NET net_97 34.2
*CONN
*I I195:Y O
*I I196:A I
*CAP
1 I195:Y 17.1
2 I196:A 17.1
*RES
2 I195:Y I196:A 3660
*END

*D_NET net_98 132.5
*CONN
*I I197:Y O
*I I198:A I
*CAP
1 I197:Y 66.25
2 I198:A 66.25
*RES
2 I197:Y I198:A 317.5
*END

*D_NET net_99 141.2
*CONN
*I I199:Y O
*I I200:A I
*CAP
1 I199:Y 70.6
2 I200:A 70.6
*RES
2 I199:Y I200:A 2043
*END
