*SPEF "1.0"
*DESIGN "tau2020v1"
*PROGRAM "RandomNets"
*T_UNIT 1 NS
*C_UNIT 1 FF
*R_UNIT 1 OHM

*PORTS 


*D_NET net_0 155.8
*CONN
*I I1:ZN O
*I I2:A I
*CAP
1 I1:ZN 77.9
2 I2:A 77.9
*RES
2 I1:ZN I2:A 2233.5
*END

*D_NET net_1 164.4
*CONN
*I I3:ZN O
*I I4:A I
*CAP
1 I3:ZN 82.2
2 I4:A 82.2
*RES
2 I3:ZN I4:A 16660
*END

*D_NET net_10 108.4
*CONN
*I I21:ZN O
*I I22:A I
*CAP
1 I21:ZN 54.2
2 I22:A 54.2
*RES
2 I21:ZN I22:A 1637
*END

*D_NET net_11 16.95
*CONN
*I I23:Z O
*I I24:A I
*CAP
1 I23:Z 8.475
2 I24:A 8.475
*RES
2 I23:Z I24:A 11500
*END

*D_NET net_12 34
*CONN
*I I25:ZN O
*I I26:A I
*CAP
1 I25:ZN 17
2 I26:A 17
*RES
2 I25:ZN I26:A 1950
*END

*D_NET net_13 149
*CONN
*I I27:ZN O
*I I28:A I
*CAP
1 I27:ZN 74.5
2 I28:A 74.5
*RES
2 I27:ZN I28:A 2140.5
*END

*D_NET net_14 47.6
*CONN
*I I29:Z O
*I I30:A I
*CAP
1 I29:Z 23.8
2 I30:A 23.8
*RES
2 I29:Z I30:A 4980
*END

*D_NET net_15 2.4
*CONN
*I I31:ZN O
*I I32:A I
*CAP
1 I31:ZN 1.2
2 I32:A 1.2
*RES
2 I31:ZN I32:A 460
*END

*D_NET net_16 140.4
*CONN
*I I33:ZN O
*I I34:A I
*CAP
1 I33:ZN 70.2
2 I34:A 70.2
*RES
2 I33:ZN I34:A 992
*END

*D_NET net_17 181.2
*CONN
*I I35:Z O
*I I36:A I
*CAP
1 I35:Z 90.6
2 I36:A 90.6
*RES
2 I35:Z I36:A 2547
*END

*D_NET net_18 132.8
*CONN
*I I37:Z O
*I I38:A I
*CAP
1 I37:Z 66.4
2 I38:A 66.4
*RES
2 I37:Z I38:A 13500
*END

*D_NET net_19 146.4
*CONN
*I I39:Z O
*I I40:A I
*CAP
1 I39:Z 73.2
2 I40:A 73.2
*RES
2 I39:Z I40:A 7570
*END

*D_NET net_2 105.2
*CONN
*I I5:ZN O
*I I6:A I
*CAP
1 I5:ZN 52.6
2 I6:A 52.6
*RES
2 I5:ZN I6:A 1593
*END

*D_NET net_20 178.6
*CONN
*I I41:ZN O
*I I42:A I
*CAP
1 I41:ZN 89.3
2 I42:A 89.3
*RES
2 I41:ZN I42:A 2510.5
*END

*D_NET net_21 200
*CONN
*I I43:ZN O
*I I44:A I
*CAP
1 I43:ZN 100
2 I44:A 100
*RES
2 I43:ZN I44:A 10250
*END

*D_NET net_22 159.6
*CONN
*I I45:Z O
*I I46:A I
*CAP
1 I45:Z 79.8
2 I46:A 79.8
*RES
2 I45:Z I46:A 2269
*END

*D_NET net_23 39.6
*CONN
*I I47:Z O
*I I48:A I
*CAP
1 I47:Z 19.8
2 I48:A 19.8
*RES
2 I47:Z I48:A 2230
*END

*D_NET net_24 167.5
*CONN
*I I49:Z O
*I I50:A I
*CAP
1 I49:Z 83.75
2 I50:A 83.75
*RES
2 I49:Z I50:A 324.5
*END

*D_NET net_25 87.6
*CONN
*I I51:Z O
*I I52:A I
*CAP
1 I51:Z 43.8
2 I52:A 43.8
*RES
2 I51:Z I52:A 9000
*END

*D_NET net_26 435
*CONN
*I I53:Z O
*I I54:A I
*CAP
1 I53:Z 217.5
2 I54:A 217.5
*RES
2 I53:Z I54:A 378
*END

*D_NET net_27 102.6
*CONN
*I I55:Z O
*I I56:A I
*CAP
1 I55:Z 51.3
2 I56:A 51.3
*RES
2 I55:Z I56:A 1556.5
*END

*D_NET net_28 251.5
*CONN
*I I57:Z O
*I I58:A I
*CAP
1 I57:Z 125.75
2 I58:A 125.75
*RES
2 I57:Z I58:A 342.3
*END

*D_NET net_29 64.8
*CONN
*I I59:ZN O
*I I60:A I
*CAP
1 I59:ZN 32.4
2 I60:A 32.4
*RES
2 I59:ZN I60:A 1092
*END

*D_NET net_3 263.5
*CONN
*I I7:ZN O
*I I8:A I
*CAP
1 I7:ZN 131.75
2 I8:A 131.75
*RES
2 I7:ZN I8:A 344.7
*END

*D_NET net_30 36.2
*CONN
*I I61:ZN O
*I I62:A I
*CAP
1 I61:ZN 18.1
2 I62:A 18.1
*RES
2 I61:ZN I62:A 2080
*END

*D_NET net_31 49.6
*CONN
*I I63:ZN O
*I I64:A I
*CAP
1 I63:ZN 24.8
2 I64:A 24.8
*RES
2 I63:ZN I64:A 2740
*END

*D_NET net_32 59.2
*CONN
*I I65:ZN O
*I I66:A I
*CAP
1 I65:ZN 29.6
2 I66:A 29.6
*RES
2 I65:ZN I66:A 6160
*END

*D_NET net_33 56.6
*CONN
*I I67:Z O
*I I68:A I
*CAP
1 I67:Z 28.3
2 I68:A 28.3
*RES
2 I67:Z I68:A 571
*END

*D_NET net_34 73.8
*CONN
*I I69:Z O
*I I70:A I
*CAP
1 I69:Z 36.9
2 I70:A 36.9
*RES
2 I69:Z I70:A 657
*END

*D_NET net_35 105.2
*CONN
*I I71:ZN O
*I I72:A I
*CAP
1 I71:ZN 52.6
2 I72:A 52.6
*RES
2 I71:ZN I72:A 1597
*END

*D_NET net_36 4
*CONN
*I I73:ZN O
*I I74:A I
*CAP
1 I73:ZN 2
2 I74:A 2
*RES
2 I73:ZN I74:A 291.8
*END

*D_NET net_37 171.4
*CONN
*I I75:ZN O
*I I76:A I
*CAP
1 I75:ZN 85.7
2 I76:A 85.7
*RES
2 I75:ZN I76:A 2420.5
*END

*D_NET net_38 183.2
*CONN
*I I77:ZN O
*I I78:A I
*CAP
1 I77:ZN 91.6
2 I78:A 91.6
*RES
2 I77:ZN I78:A 2564
*END

*D_NET net_39 188
*CONN
*I I79:ZN O
*I I80:A I
*CAP
1 I79:ZN 94
2 I80:A 94
*RES
2 I79:ZN I80:A 9650
*END

*D_NET net_4 456.5
*CONN
*I I10:A I
*I I9:Z O
*CAP
1 I9:Z 228.25
2 I10:A 228.25
*RES
2 I9:Z I10:A 382.3
*END

*D_NET net_40 79.65
*CONN
*I I81:Z O
*I I82:A I
*CAP
1 I81:Z 39.825
2 I82:A 39.825
*RES
2 I81:Z I82:A 53300
*END

*D_NET net_41 120.6
*CONN
*I I83:Z O
*I I84:A I
*CAP
1 I83:Z 60.3
2 I84:A 60.3
*RES
2 I83:Z I84:A 12280
*END

*D_NET net_42 108
*CONN
*I I85:ZN O
*I I86:A I
*CAP
1 I85:ZN 54
2 I86:A 54
*RES
2 I85:ZN I86:A 828
*END

*D_NET net_43 10
*CONN
*I I87:Z O
*I I88:A I
*CAP
1 I87:Z 5
2 I88:A 5
*RES
2 I87:Z I88:A 1240
*END

*D_NET net_44 390
*CONN
*I I89:ZN O
*I I90:A I
*CAP
1 I89:ZN 195
2 I90:A 195
*RES
2 I89:ZN I90:A 369
*END

*D_NET net_45 28.35
*CONN
*I I91:ZN O
*I I92:A I
*CAP
1 I91:ZN 14.175
2 I92:A 14.175
*RES
2 I91:ZN I92:A 19100
*END

*D_NET net_46 187.2
*CONN
*I I93:ZN O
*I I94:A I
*CAP
1 I93:ZN 93.6
2 I94:A 93.6
*RES
2 I93:ZN I94:A 1226
*END

*D_NET net_47 98.5
*CONN
*I I95:ZN O
*I I96:A I
*CAP
1 I95:ZN 49.25
2 I96:A 49.25
*RES
2 I95:ZN I96:A 311.7
*END

*D_NET net_48 122
*CONN
*I I97:ZN O
*I I98:A I
*CAP
1 I97:ZN 61
2 I98:A 61
*RES
2 I97:ZN I98:A 12440
*END

*D_NET net_49 413.5
*CONN
*I I100:A I
*I I99:ZN O
*CAP
1 I99:ZN 206.75
2 I100:A 206.75
*RES
2 I99:ZN I100:A 374.7
*END

*D_NET net_5 38
*CONN
*I I11:ZN O
*I I12:A I
*CAP
1 I11:ZN 19
2 I12:A 19
*RES
2 I11:ZN I12:A 753
*END

*D_NET net_50 87.8
*CONN
*I I101:Z O
*I I102:A I
*CAP
1 I101:Z 43.9
2 I102:A 43.9
*RES
2 I101:Z I102:A 9000
*END

*D_NET net_51 178.8
*CONN
*I I103:ZN O
*I I104:A I
*CAP
1 I103:ZN 89.4
2 I104:A 89.4
*RES
2 I103:ZN I104:A 2517
*END

*D_NET net_52 120.6
*CONN
*I I105:ZN O
*I I106:A I
*CAP
1 I105:ZN 60.3
2 I106:A 60.3
*RES
2 I105:ZN I106:A 1781.5
*END

*D_NET net_53 195
*CONN
*I I107:Z O
*I I108:A I
*CAP
1 I107:Z 97.5
2 I108:A 97.5
*RES
2 I107:Z I108:A 2715.5
*END

*D_NET net_54 73
*CONN
*I I109:ZN O
*I I110:A I
*CAP
1 I109:ZN 36.5
2 I110:A 36.5
*RES
2 I109:ZN I110:A 1194.5
*END

*D_NET net_55 291.5
*CONN
*I I111:ZN O
*I I112:A I
*CAP
1 I111:ZN 145.75
2 I112:A 145.75
*RES
2 I111:ZN I112:A 350.3
*END

*D_NET net_56 35.6
*CONN
*I I113:ZN O
*I I114:A I
*CAP
1 I113:ZN 17.8
2 I114:A 17.8
*RES
2 I113:ZN I114:A 468
*END

*D_NET net_57 105
*CONN
*I I115:ZN O
*I I116:A I
*CAP
1 I115:ZN 52.5
2 I116:A 52.5
*RES
2 I115:ZN I116:A 815
*END

*D_NET net_58 17.6
*CONN
*I I117:ZN O
*I I118:A I
*CAP
1 I117:ZN 8.8
2 I118:A 8.8
*RES
2 I117:ZN I118:A 376
*END

*D_NET net_59 134.2
*CONN
*I I119:ZN O
*I I120:A I
*CAP
1 I119:ZN 67.1
2 I120:A 67.1
*RES
2 I119:ZN I120:A 961
*END

*D_NET net_6 69.4
*CONN
*I I13:ZN O
*I I14:A I
*CAP
1 I13:ZN 34.7
2 I14:A 34.7
*RES
2 I13:ZN I14:A 635
*END

*D_NET net_60 143.6
*CONN
*I I121:ZN O
*I I122:A I
*CAP
1 I121:ZN 71.8
2 I122:A 71.8
*RES
2 I121:ZN I122:A 2069
*END

*D_NET net_61 120.4
*CONN
*I I123:ZN O
*I I124:A I
*CAP
1 I123:ZN 60.2
2 I124:A 60.2
*RES
2 I123:ZN I124:A 890
*END

*D_NET net_62 146
*CONN
*I I125:ZN O
*I I126:A I
*CAP
1 I125:ZN 73
2 I126:A 73
*RES
2 I125:ZN I126:A 2103
*END

*D_NET net_63 41
*CONN
*I I127:Z O
*I I128:A I
*CAP
1 I127:Z 20.5
2 I128:A 20.5
*RES
2 I127:Z I128:A 299.2
*END

*D_NET net_64 117
*CONN
*I I129:ZN O
*I I130:A I
*CAP
1 I129:ZN 58.5
2 I130:A 58.5
*RES
2 I129:ZN I130:A 6120
*END

*D_NET net_65 132.5
*CONN
*I I131:ZN O
*I I132:A I
*CAP
1 I131:ZN 66.25
2 I132:A 66.25
*RES
2 I131:ZN I132:A 318.5
*END

*D_NET net_66 149.2
*CONN
*I I133:ZN O
*I I134:A I
*CAP
1 I133:ZN 74.6
2 I134:A 74.6
*RES
2 I133:ZN I134:A 2151
*END

*D_NET net_67 182.4
*CONN
*I I135:Z O
*I I136:A I
*CAP
1 I135:Z 91.2
2 I136:A 91.2
*RES
2 I135:Z I136:A 9390
*END

*D_NET net_68 173
*CONN
*I I137:Z O
*I I138:A I
*CAP
1 I137:Z 86.5
2 I138:A 86.5
*RES
2 I137:Z I138:A 2440.5
*END

*D_NET net_69 162.6
*CONN
*I I139:Z O
*I I140:A I
*CAP
1 I139:Z 81.3
2 I140:A 81.3
*RES
2 I139:Z I140:A 2318.5
*END

*D_NET net_7 26.2
*CONN
*I I15:ZN O
*I I16:A I
*CAP
1 I15:ZN 13.1
2 I16:A 13.1
*RES
2 I15:ZN I16:A 609.5
*END

*D_NET net_70 357
*CONN
*I I141:ZN O
*I I142:A I
*CAP
1 I141:ZN 178.5
2 I142:A 178.5
*RES
2 I141:ZN I142:A 362.4
*END

*D_NET net_71 191.4
*CONN
*I I143:ZN O
*I I144:A I
*CAP
1 I143:ZN 95.7
2 I144:A 95.7
*RES
2 I143:ZN I144:A 2666.5
*END

*D_NET net_72 106.2
*CONN
*I I145:Z O
*I I146:A I
*CAP
1 I145:Z 53.1
2 I146:A 53.1
*RES
2 I145:Z I146:A 10860
*END

*D_NET net_73 109.4
*CONN
*I I147:ZN O
*I I148:A I
*CAP
1 I147:ZN 54.7
2 I148:A 54.7
*RES
2 I147:ZN I148:A 835
*END

*D_NET net_74 145.4
*CONN
*I I149:ZN O
*I I150:A I
*CAP
1 I149:ZN 72.7
2 I150:A 72.7
*RES
2 I149:ZN I150:A 14780
*END

*D_NET net_75 35.25
*CONN
*I I151:ZN O
*I I152:A I
*CAP
1 I151:ZN 17.625
2 I152:A 17.625
*RES
2 I151:ZN I152:A 23700
*END

*D_NET net_76 142
*CONN
*I I153:Z O
*I I154:A I
*CAP
1 I153:Z 71
2 I154:A 71
*RES
2 I153:Z I154:A 2053
*END

*D_NET net_77 37
*CONN
*I I155:ZN O
*I I156:A I
*CAP
1 I155:ZN 18.5
2 I156:A 18.5
*RES
2 I155:ZN I156:A 2110
*END

*D_NET net_78 102
*CONN
*I I157:ZN O
*I I158:A I
*CAP
1 I157:ZN 51
2 I158:A 51
*RES
2 I157:ZN I158:A 798
*END

*D_NET net_79 34
*CONN
*I I159:ZN O
*I I160:A I
*CAP
1 I159:ZN 17
2 I160:A 17
*RES
2 I159:ZN I160:A 3620
*END

*D_NET net_8 180.4
*CONN
*I I17:ZN O
*I I18:A I
*CAP
1 I17:ZN 90.2
2 I18:A 90.2
*RES
2 I17:ZN I18:A 9290
*END

*D_NET net_80 2.2
*CONN
*I I161:Z O
*I I162:A I
*CAP
1 I161:Z 1.1
2 I162:A 1.1
*RES
2 I161:Z I162:A 313.5
*END

*D_NET net_81 94.4
*CONN
*I I163:Z O
*I I164:A I
*CAP
1 I163:Z 47.2
2 I164:A 47.2
*RES
2 I163:Z I164:A 760
*END

*D_NET net_82 77
*CONN
*I I165:ZN O
*I I166:A I
*CAP
1 I165:ZN 38.5
2 I166:A 38.5
*RES
2 I165:ZN I166:A 4100
*END

*D_NET net_83 20
*CONN
*I I167:ZN O
*I I168:A I
*CAP
1 I167:ZN 10
2 I168:A 10
*RES
2 I167:ZN I168:A 390
*END

*D_NET net_84 198
*CONN
*I I169:ZN O
*I I170:A I
*CAP
1 I169:ZN 99
2 I170:A 99
*RES
2 I169:ZN I170:A 10160
*END

*D_NET net_85 23
*CONN
*I I171:ZN O
*I I172:A I
*CAP
1 I171:ZN 11.5
2 I172:A 11.5
*RES
2 I171:ZN I172:A 1410
*END

*D_NET net_86 32.6
*CONN
*I I173:ZN O
*I I174:A I
*CAP
1 I173:ZN 16.3
2 I174:A 16.3
*RES
2 I173:ZN I174:A 3500
*END

*D_NET net_87 372
*CONN
*I I175:Z O
*I I176:A I
*CAP
1 I175:Z 186
2 I176:A 186
*RES
2 I175:Z I176:A 365.4
*END

*D_NET net_88 13.8
*CONN
*I I177:ZN O
*I I178:A I
*CAP
1 I177:ZN 6.9
2 I178:A 6.9
*RES
2 I177:ZN I178:A 359
*END

*D_NET net_89 61.8
*CONN
*I I179:ZN O
*I I180:A I
*CAP
1 I179:ZN 30.9
2 I180:A 30.9
*RES
2 I179:ZN I180:A 1058.5
*END

*D_NET net_9 91
*CONN
*I I19:Z O
*I I20:A I
*CAP
1 I19:Z 45.5
2 I20:A 45.5
*RES
2 I19:Z I20:A 4810
*END

*D_NET net_90 89.6
*CONN
*I I181:ZN O
*I I182:A I
*CAP
1 I181:ZN 44.8
2 I182:A 44.8
*RES
2 I181:ZN I182:A 1394
*END

*D_NET net_91 72.4
*CONN
*I I183:ZN O
*I I184:A I
*CAP
1 I183:ZN 36.2
2 I184:A 36.2
*RES
2 I183:ZN I184:A 1191
*END

*D_NET net_92 16.4
*CONN
*I I185:Z O
*I I186:A I
*CAP
1 I185:Z 8.2
2 I186:A 8.2
*RES
2 I185:Z I186:A 370
*END

*D_NET net_93 95.4
*CONN
*I I187:ZN O
*I I188:A I
*CAP
1 I187:ZN 47.7
2 I188:A 47.7
*RES
2 I187:ZN I188:A 9760
*END

*D_NET net_94 187.6
*CONN
*I I189:ZN O
*I I190:A I
*CAP
1 I189:ZN 93.8
2 I190:A 93.8
*RES
2 I189:ZN I190:A 9640
*END

*D_NET net_95 46.6
*CONN
*I I191:Z O
*I I192:A I
*CAP
1 I191:Z 23.3
2 I192:A 23.3
*RES
2 I191:Z I192:A 2600
*END

*D_NET net_96 397
*CONN
*I I193:ZN O
*I I194:A I
*CAP
1 I193:ZN 198.5
2 I194:A 198.5
*RES
2 I193:ZN I194:A 370.4
*END

*D_NET net_97 148.2
*CONN
*I I195:ZN O
*I I196:A I
*CAP
1 I195:ZN 74.1
2 I196:A 74.1
*RES
2 I195:ZN I196:A 15040
*END

*D_NET net_98 45.3
*CONN
*I I197:ZN O
*I I198:A I
*CAP
1 I197:ZN 22.65
2 I198:A 22.65
*RES
2 I197:ZN I198:A 30400
*END

*D_NET net_99 387
*CONN
*I I199:ZN O
*I I200:A I
*CAP
1 I199:ZN 193.5
2 I200:A 193.5
*RES
2 I199:ZN I200:A 369.4
*END
