*SPEF "1.0"
*DESIGN "tau2020v2"
*PROGRAM "RandomNets"
*T_UNIT 1 NS
*C_UNIT 1 FF
*R_UNIT 1 OHM

*PORTS 


*D_NET net_0 70.4
*CONN
*I I1:Y O
*I I2:A I
*CAP
1 I1:Y 35.2
2 I2:A 35.2
*RES
2 I1:Y I2:A 3770
*END

*D_NET net_1 199
*CONN
*I I3:Y O
*I I4:A I
*CAP
1 I3:Y 99.5
2 I4:A 99.5
*RES
2 I3:Y I4:A 2765.5
*END

*D_NET net_10 225.75
*CONN
*I I21:Y O
*I I22:A I
*CAP
1 I21:Y 112.875
2 I22:A 112.875
*RES
2 I21:Y I22:A 150700
*END

*D_NET net_11 92.5
*CONN
*I I23:Y O
*I I24:A I
*CAP
1 I23:Y 46.25
2 I24:A 46.25
*RES
2 I23:Y I24:A 310.5
*END

*D_NET net_12 25.6
*CONN
*I I25:Y O
*I I26:A I
*CAP
1 I25:Y 12.8
2 I26:A 12.8
*RES
2 I25:Y I26:A 2780
*END

*D_NET net_13 11.2
*CONN
*I I27:Y O
*I I28:A I
*CAP
1 I27:Y 5.6
2 I28:A 5.6
*RES
2 I27:Y I28:A 1340
*END

*D_NET net_14 224.2
*CONN
*I I29:Y O
*I I30:A I
*CAP
1 I29:Y 112.1
2 I30:A 112.1
*RES
2 I29:Y I30:A 3088.5
*END

*D_NET net_15 333.6
*CONN
*I I31:Y O
*I I32:A I
*CAP
1 I31:Y 166.8
2 I32:A 166.8
*RES
2 I31:Y I32:A 4452
*END

*D_NET net_16 25.8
*CONN
*I I33:Y O
*I I34:A I
*CAP
1 I33:Y 12.9
2 I34:A 12.9
*RES
2 I33:Y I34:A 600.5
*END

*D_NET net_17 316.8
*CONN
*I I35:Y O
*I I36:A I
*CAP
1 I35:Y 158.4
2 I36:A 158.4
*RES
2 I35:Y I36:A 4234
*END

*D_NET net_18 55.2
*CONN
*I I37:Y O
*I I38:A I
*CAP
1 I37:Y 27.6
2 I38:A 27.6
*RES
2 I37:Y I38:A 5740
*END

*D_NET net_19 280.6
*CONN
*I I39:Y O
*I I40:A I
*CAP
1 I39:Y 140.3
2 I40:A 140.3
*RES
2 I39:Y I40:A 3785.5
*END

*D_NET net_2 66.4
*CONN
*I I5:Y O
*I I6:A I
*CAP
1 I5:Y 33.2
2 I6:A 33.2
*RES
2 I5:Y I6:A 6880
*END

*D_NET net_20 34.6
*CONN
*I I41:Y O
*I I42:A I
*CAP
1 I41:Y 17.3
2 I42:A 17.3
*RES
2 I41:Y I42:A 710.5
*END

*D_NET net_21 138.4
*CONN
*I I43:Y O
*I I44:A I
*CAP
1 I43:Y 69.2
2 I44:A 69.2
*RES
2 I43:Y I44:A 982
*END

*D_NET net_22 91
*CONN
*I I45:Y O
*I I46:A I
*CAP
1 I45:Y 45.5
2 I46:A 45.5
*RES
2 I45:Y I46:A 309.2
*END

*D_NET net_23 251.2
*CONN
*I I47:Y O
*I I48:A I
*CAP
1 I47:Y 125.6
2 I48:A 125.6
*RES
2 I47:Y I48:A 3414
*END

*D_NET net_24 204.6
*CONN
*I I49:Y O
*I I50:A I
*CAP
1 I49:Y 102.3
2 I50:A 102.3
*RES
2 I49:Y I50:A 20680
*END

*D_NET net_25 374
*CONN
*I I51:Y O
*I I52:A I
*CAP
1 I51:Y 187
2 I52:A 187
*RES
2 I51:Y I52:A 4957
*END

*D_NET net_26 15.8
*CONN
*I I53:Y O
*I I54:A I
*CAP
1 I53:Y 7.9
2 I54:A 7.9
*RES
2 I53:Y I54:A 1820
*END

*D_NET net_27 193
*CONN
*I I55:Y O
*I I56:A I
*CAP
1 I55:Y 96.5
2 I56:A 96.5
*RES
2 I55:Y I56:A 2690.5
*END

*D_NET net_28 273.4
*CONN
*I I57:Y O
*I I58:A I
*CAP
1 I57:Y 136.7
2 I58:A 136.7
*RES
2 I57:Y I58:A 3695.5
*END

*D_NET net_29 268
*CONN
*I I59:Y O
*I I60:A I
*CAP
1 I59:Y 134
2 I60:A 134
*RES
2 I59:Y I60:A 3628
*END

*D_NET net_3 135.6
*CONN
*I I7:Y O
*I I8:A I
*CAP
1 I7:Y 67.8
2 I8:A 67.8
*RES
2 I7:Y I8:A 7030
*END

*D_NET net_30 38.6
*CONN
*I I61:Y O
*I I62:A I
*CAP
1 I61:Y 19.3
2 I62:A 19.3
*RES
2 I61:Y I62:A 2190
*END

*D_NET net_31 435.5
*CONN
*I I63:Y O
*I I64:A I
*CAP
1 I63:Y 217.75
2 I64:A 217.75
*RES
2 I63:Y I64:A 378.1
*END

*D_NET net_32 217.8
*CONN
*I I65:Y O
*I I66:A I
*CAP
1 I65:Y 108.9
2 I66:A 108.9
*RES
2 I65:Y I66:A 3004.5
*END

*D_NET net_33 47.4
*CONN
*I I67:Y O
*I I68:A I
*CAP
1 I67:Y 23.7
2 I68:A 23.7
*RES
2 I67:Y I68:A 2620
*END

*D_NET net_34 99.3
*CONN
*I I69:Y O
*I I70:A I
*CAP
1 I69:Y 49.65
2 I70:A 49.65
*RES
2 I69:Y I70:A 66400
*END

*D_NET net_35 72.4
*CONN
*I I71:Y O
*I I72:A I
*CAP
1 I71:Y 36.2
2 I72:A 36.2
*RES
2 I71:Y I72:A 3890
*END

*D_NET net_36 141
*CONN
*I I73:Y O
*I I74:A I
*CAP
1 I73:Y 70.5
2 I74:A 70.5
*RES
2 I73:Y I74:A 7320
*END

*D_NET net_37 356.6
*CONN
*I I75:Y O
*I I76:A I
*CAP
1 I75:Y 178.3
2 I76:A 178.3
*RES
2 I75:Y I76:A 35880
*END

*D_NET net_38 300.6
*CONN
*I I77:Y O
*I I78:A I
*CAP
1 I77:Y 150.3
2 I78:A 150.3
*RES
2 I77:Y I78:A 30280
*END

*D_NET net_39 122
*CONN
*I I79:Y O
*I I80:A I
*CAP
1 I79:Y 61
2 I80:A 61
*RES
2 I79:Y I80:A 898
*END

*D_NET net_4 331.2
*CONN
*I I10:A I
*I I9:Y O
*CAP
1 I9:Y 165.6
2 I10:A 165.6
*RES
2 I9:Y I10:A 4414
*END

*D_NET net_40 363
*CONN
*I I81:Y O
*I I82:A I
*CAP
1 I81:Y 181.5
2 I82:A 181.5
*RES
2 I81:Y I82:A 18410
*END

*D_NET net_41 375.2
*CONN
*I I83:Y O
*I I84:A I
*CAP
1 I83:Y 187.6
2 I84:A 187.6
*RES
2 I83:Y I84:A 19010
*END

*D_NET net_42 6.4
*CONN
*I I85:Y O
*I I86:A I
*CAP
1 I85:Y 3.2
2 I86:A 3.2
*RES
2 I85:Y I86:A 590
*END

*D_NET net_43 298.6
*CONN
*I I87:Y O
*I I88:A I
*CAP
1 I87:Y 149.3
2 I88:A 149.3
*RES
2 I87:Y I88:A 4018.5
*END

*D_NET net_44 344.6
*CONN
*I I89:Y O
*I I90:A I
*CAP
1 I89:Y 172.3
2 I90:A 172.3
*RES
2 I89:Y I90:A 34680
*END

*D_NET net_45 0.2
*CONN
*I I91:Y O
*I I92:A I
*CAP
1 I91:Y 0.1
2 I92:A 0.1
*RES
2 I91:Y I92:A 288.5
*END

*D_NET net_46 230.7
*CONN
*I I93:Y O
*I I94:A I
*CAP
1 I93:Y 115.35
2 I94:A 115.35
*RES
2 I93:Y I94:A 154000
*END

*D_NET net_47 346.8
*CONN
*I I95:Y O
*I I96:A I
*CAP
1 I95:Y 173.4
2 I96:A 173.4
*RES
2 I95:Y I96:A 4613
*END

*D_NET net_48 387
*CONN
*I I97:Y O
*I I98:A I
*CAP
1 I97:Y 193.5
2 I98:A 193.5
*RES
2 I97:Y I98:A 38920
*END

*D_NET net_49 270.2
*CONN
*I I100:A I
*I I99:Y O
*CAP
1 I99:Y 135.1
2 I100:A 135.1
*RES
2 I99:Y I100:A 27240
*END

*D_NET net_5 308.2
*CONN
*I I11:Y O
*I I12:A I
*CAP
1 I11:Y 154.1
2 I12:A 154.1
*RES
2 I11:Y I12:A 31060
*END

*D_NET net_50 210.4
*CONN
*I I101:Y O
*I I102:A I
*CAP
1 I101:Y 105.2
2 I102:A 105.2
*RES
2 I101:Y I102:A 10770
*END

*D_NET net_51 903.5
*CONN
*I I103:Y O
*I I104:A I
*CAP
1 I103:Y 451.75
2 I104:A 451.75
*RES
2 I103:Y I104:A 471.7
*END

*D_NET net_52 264.2
*CONN
*I I105:Y O
*I I106:A I
*CAP
1 I105:Y 132.1
2 I106:A 132.1
*RES
2 I105:Y I106:A 3584.5
*END

*D_NET net_53 307
*CONN
*I I107:Y O
*I I108:A I
*CAP
1 I107:Y 153.5
2 I108:A 153.5
*RES
2 I107:Y I108:A 4123.5
*END

*D_NET net_54 70.95
*CONN
*I I109:Y O
*I I110:A I
*CAP
1 I109:Y 35.475
2 I110:A 35.475
*RES
2 I109:Y I110:A 47500
*END

*D_NET net_55 269.8
*CONN
*I I111:Y O
*I I112:A I
*CAP
1 I111:Y 134.9
2 I112:A 134.9
*RES
2 I111:Y I112:A 27200
*END

*D_NET net_56 113.6
*CONN
*I I113:Y O
*I I114:A I
*CAP
1 I113:Y 56.8
2 I114:A 56.8
*RES
2 I113:Y I114:A 856
*END

*D_NET net_57 34.6
*CONN
*I I115:Y O
*I I116:A I
*CAP
1 I115:Y 17.3
2 I116:A 17.3
*RES
2 I115:Y I116:A 463
*END

*D_NET net_58 184.8
*CONN
*I I117:Y O
*I I118:A I
*CAP
1 I117:Y 92.4
2 I118:A 92.4
*RES
2 I117:Y I118:A 2588
*END

*D_NET net_59 391
*CONN
*I I119:Y O
*I I120:A I
*CAP
1 I119:Y 195.5
2 I120:A 195.5
*RES
2 I119:Y I120:A 369.2
*END

*D_NET net_6 220.8
*CONN
*I I13:Y O
*I I14:A I
*CAP
1 I13:Y 110.4
2 I14:A 110.4
*RES
2 I13:Y I14:A 3034
*END

*D_NET net_60 395.2
*CONN
*I I121:Y O
*I I122:A I
*CAP
1 I121:Y 197.6
2 I122:A 197.6
*RES
2 I121:Y I122:A 5218
*END

*D_NET net_61 553.5
*CONN
*I I123:Y O
*I I124:A I
*CAP
1 I123:Y 276.75
2 I124:A 276.75
*RES
2 I123:Y I124:A 401.7
*END

*D_NET net_62 56
*CONN
*I I125:Y O
*I I126:A I
*CAP
1 I125:Y 28
2 I126:A 28
*RES
2 I125:Y I126:A 5820
*END

*D_NET net_63 359.6
*CONN
*I I127:Y O
*I I128:A I
*CAP
1 I127:Y 179.8
2 I128:A 179.8
*RES
2 I127:Y I128:A 2088
*END

*D_NET net_64 139.5
*CONN
*I I129:Y O
*I I130:A I
*CAP
1 I129:Y 69.75
2 I130:A 69.75
*RES
2 I129:Y I130:A 318.9
*END

*D_NET net_65 298
*CONN
*I I131:Y O
*I I132:A I
*CAP
1 I131:Y 149
2 I132:A 149
*RES
2 I131:Y I132:A 350.6
*END

*D_NET net_66 109
*CONN
*I I133:Y O
*I I134:A I
*CAP
1 I133:Y 54.5
2 I134:A 54.5
*RES
2 I133:Y I134:A 1644.5
*END

*D_NET net_67 3.8
*CONN
*I I135:Y O
*I I136:A I
*CAP
1 I135:Y 1.9
2 I136:A 1.9
*RES
2 I135:Y I136:A 309
*END

*D_NET net_68 310.6
*CONN
*I I137:Y O
*I I138:A I
*CAP
1 I137:Y 155.3
2 I138:A 155.3
*RES
2 I137:Y I138:A 4156.5
*END

*D_NET net_69 216.15
*CONN
*I I139:Y O
*I I140:A I
*CAP
1 I139:Y 108.075
2 I140:A 108.075
*RES
2 I139:Y I140:A 144300
*END

*D_NET net_7 67.4
*CONN
*I I15:Y O
*I I16:A I
*CAP
1 I15:Y 33.7
2 I16:A 33.7
*RES
2 I15:Y I16:A 6960
*END

*D_NET net_70 288
*CONN
*I I141:Y O
*I I142:A I
*CAP
1 I141:Y 144
2 I142:A 144
*RES
2 I141:Y I142:A 348.6
*END

*D_NET net_71 960.5
*CONN
*I I143:Y O
*I I144:A I
*CAP
1 I143:Y 480.25
2 I144:A 480.25
*RES
2 I143:Y I144:A 483.1
*END

*D_NET net_72 37
*CONN
*I I145:Y O
*I I146:A I
*CAP
1 I145:Y 18.5
2 I146:A 18.5
*RES
2 I145:Y I146:A 744.5
*END

*D_NET net_73 19
*CONN
*I I147:Y O
*I I148:A I
*CAP
1 I147:Y 9.5
2 I148:A 9.5
*RES
2 I147:Y I148:A 1210
*END

*D_NET net_74 452.5
*CONN
*I I149:Y O
*I I150:A I
*CAP
1 I149:Y 226.25
2 I150:A 226.25
*RES
2 I149:Y I150:A 381.5
*END

*D_NET net_75 304.2
*CONN
*I I151:Y O
*I I152:A I
*CAP
1 I151:Y 152.1
2 I152:A 152.1
*RES
2 I151:Y I152:A 1811
*END

*D_NET net_76 50.6
*CONN
*I I153:Y O
*I I154:A I
*CAP
1 I153:Y 25.3
2 I154:A 25.3
*RES
2 I153:Y I154:A 541
*END

*D_NET net_77 285.6
*CONN
*I I155:Y O
*I I156:A I
*CAP
1 I155:Y 142.8
2 I156:A 142.8
*RES
2 I155:Y I156:A 3848
*END

*D_NET net_78 321
*CONN
*I I157:Y O
*I I158:A I
*CAP
1 I157:Y 160.5
2 I158:A 160.5
*RES
2 I157:Y I158:A 4298.5
*END

*D_NET net_79 94.8
*CONN
*I I159:Y O
*I I160:A I
*CAP
1 I159:Y 47.4
2 I160:A 47.4
*RES
2 I159:Y I160:A 5000
*END

*D_NET net_8 176.2
*CONN
*I I17:Y O
*I I18:A I
*CAP
1 I17:Y 88.1
2 I18:A 88.1
*RES
2 I17:Y I18:A 2476.5
*END

*D_NET net_80 345.4
*CONN
*I I161:Y O
*I I162:A I
*CAP
1 I161:Y 172.7
2 I162:A 172.7
*RES
2 I161:Y I162:A 4599.5
*END

*D_NET net_81 158
*CONN
*I I163:Y O
*I I164:A I
*CAP
1 I163:Y 79
2 I164:A 79
*RES
2 I163:Y I164:A 16040
*END

*D_NET net_82 65.6
*CONN
*I I165:Y O
*I I166:A I
*CAP
1 I165:Y 32.8
2 I166:A 32.8
*RES
2 I165:Y I166:A 616
*END

*D_NET net_83 148
*CONN
*I I167:Y O
*I I168:A I
*CAP
1 I167:Y 74
2 I168:A 74
*RES
2 I167:Y I168:A 7650
*END

*D_NET net_84 122.8
*CONN
*I I169:Y O
*I I170:A I
*CAP
1 I169:Y 61.4
2 I170:A 61.4
*RES
2 I169:Y I170:A 1813
*END

*D_NET net_85 686
*CONN
*I I171:Y O
*I I172:A I
*CAP
1 I171:Y 343
2 I172:A 343
*RES
2 I171:Y I172:A 428.2
*END

*D_NET net_86 151.2
*CONN
*I I173:Y O
*I I174:A I
*CAP
1 I173:Y 75.6
2 I174:A 75.6
*RES
2 I173:Y I174:A 2176
*END

*D_NET net_87 129
*CONN
*I I175:Y O
*I I176:A I
*CAP
1 I175:Y 64.5
2 I176:A 64.5
*RES
2 I175:Y I176:A 316.8
*END

*D_NET net_88 103.6
*CONN
*I I177:Y O
*I I178:A I
*CAP
1 I177:Y 51.8
2 I178:A 51.8
*RES
2 I177:Y I178:A 5430
*END

*D_NET net_89 99.8
*CONN
*I I179:Y O
*I I180:A I
*CAP
1 I179:Y 49.9
2 I180:A 49.9
*RES
2 I179:Y I180:A 10220
*END

*D_NET net_9 274.8
*CONN
*I I19:Y O
*I I20:A I
*CAP
1 I19:Y 137.4
2 I20:A 137.4
*RES
2 I19:Y I20:A 1662
*END

*D_NET net_90 16
*CONN
*I I181:Y O
*I I182:A I
*CAP
1 I181:Y 8
2 I182:A 8
*RES
2 I181:Y I182:A 1820
*END

*D_NET net_91 266.2
*CONN
*I I183:Y O
*I I184:A I
*CAP
1 I183:Y 133.1
2 I184:A 133.1
*RES
2 I183:Y I184:A 26840
*END

*D_NET net_92 691
*CONN
*I I185:Y O
*I I186:A I
*CAP
1 I185:Y 345.5
2 I186:A 345.5
*RES
2 I185:Y I186:A 429.2
*END

*D_NET net_93 170.4
*CONN
*I I187:Y O
*I I188:A I
*CAP
1 I187:Y 85.2
2 I188:A 85.2
*RES
2 I187:Y I188:A 17260
*END

*D_NET net_94 117.2
*CONN
*I I189:Y O
*I I190:A I
*CAP
1 I189:Y 58.6
2 I190:A 58.6
*RES
2 I189:Y I190:A 1739
*END

*D_NET net_95 269
*CONN
*I I191:Y O
*I I192:A I
*CAP
1 I191:Y 134.5
2 I192:A 134.5
*RES
2 I191:Y I192:A 13710
*END

*D_NET net_96 170
*CONN
*I I193:Y O
*I I194:A I
*CAP
1 I193:Y 85
2 I194:A 85
*RES
2 I193:Y I194:A 17220
*END

*D_NET net_97 274.2
*CONN
*I I195:Y O
*I I196:A I
*CAP
1 I195:Y 137.1
2 I196:A 137.1
*RES
2 I195:Y I196:A 183000
*END

*D_NET net_98 22.6
*CONN
*I I197:Y O
*I I198:A I
*CAP
1 I197:Y 11.3
2 I198:A 11.3
*RES
2 I197:Y I198:A 560.5
*END

*D_NET net_99 293.6
*CONN
*I I199:Y O
*I I200:A I
*CAP
1 I199:Y 146.8
2 I200:A 146.8
*RES
2 I199:Y I200:A 14940
*END
