*SPEF "1.0"
*DESIGN "tau2020_asu"
*PROGRAM "RandomNets"
*T_UNIT 1 NS
*C_UNIT 1 FF
*R_UNIT 1 OHM

*PORTS 


*D_NET net_0 14.7173
*CONN
*I I1:Y O
*I I2:A I
*I I3:A I
*I I4:A I
*I I5:A I
*CAP
1 net_0:2 4.5936
2 net_0:3 0.248571
3 net_0:4 0.248571
4 net_0:5 1.00485
5 net_0:6 0.201964
6 net_0:7 0.201964
7 net_0:8 3.22987
8 net_0:9 0.233036
9 net_0:10 0.233036
10 net_0:11 4.52182
*RES
1 I1:Y net_0:1 143
2 net_0:1 net_0:2 57.42
3 net_0:2 net_0:3 6
4 net_0:3 net_0:4 6.21429
5 net_0:4 I3:A 139
6 net_0:2 net_0:5 12.5606
7 net_0:5 net_0:6 18
8 net_0:6 net_0:7 20.1964
9 net_0:7 I4:A 130
10 net_0:5 net_0:8 40.3734
11 net_0:8 net_0:9 93
12 net_0:9 net_0:10 310.714
13 net_0:10 I5:A 100
14 net_0:8 net_0:11 56.5228
15 net_0:11 I2:A 143
*END

*D_NET net_1 14.3
*CONN
*I I6:Y O
*I I7:A I
*CAP
1 net_1:1 7.15
2 net_1:2 7.15
*RES
1 I6:Y net_1:1 137
2 net_1:1 net_1:2 178.75
3 net_1:2 I7:A 137
*END

*D_NET net_2 7.80708
*CONN
*I I10:A I
*I I8:Y O
*I I9:A I
*CAP
1 net_2:2 0.41616
2 net_2:3 1.1985
3 net_2:4 1.1985
4 net_2:5 4.99392
*RES
1 I8:Y net_2:1 139
2 net_2:1 net_2:2 5.202
3 net_2:2 net_2:3 89
4 net_2:3 net_2:4 1598
5 net_2:4 I10:A 100
6 net_2:2 net_2:5 62.424
7 net_2:5 I9:A 139
*END

*D_NET net_3 179.24
*CONN
*I I11:Y O
*I I12:A I
*I I13:A I
*I I14:A I
*I I15:A I
*CAP
1 net_3:2 151.267
2 net_3:3 0.792805
3 net_3:4 0.792805
4 net_3:5 15.3182
5 net_3:6 0.0427101
6 net_3:7 0.0427101
7 net_3:8 5.74432
8 net_3:9 0.704716
9 net_3:10 0.704716
10 net_3:11 3.82955
*RES
1 I11:Y net_3:1 145.5
2 net_3:1 net_3:2 30.2534
3 net_3:2 net_3:3 145.5
4 net_3:3 net_3:4 1057.07
5 net_3:4 I13:A 50
6 net_3:2 net_3:5 3.06364
7 net_3:5 net_3:6 6.5
8 net_3:6 net_3:7 1.06775
9 net_3:7 I14:A 141
10 net_3:5 net_3:8 1.14887
11 net_3:8 net_3:9 45.5
12 net_3:9 net_3:10 140.943
13 net_3:10 I15:A 110
14 net_3:8 net_3:11 0.76591
15 net_3:11 I12:A 145.5
*END

*D_NET net_4 125.8
*CONN
*I I16:Y O
*I I17:A I
*CAP
1 net_4:1 62.9
2 net_4:2 62.9
*RES
1 I16:Y net_4:1 120
2 net_4:1 net_4:2 12580
3 net_4:2 I17:A 120
*END

*D_NET net_5 107.375
*CONN
*I I18:Y O
*I I19:A I
*I I20:A I
*CAP
1 net_5:2 55.1925
2 net_5:3 5.85375
3 net_5:4 5.85375
4 net_5:5 40.4745
*RES
1 I18:Y net_5:1 110
2 net_5:1 net_5:2 5519.25
3 net_5:2 net_5:3 110
4 net_5:3 net_5:4 7805
5 net_5:4 I20:A 50
6 net_5:2 net_5:5 4047.45
7 net_5:5 I19:A 110
*END

*D_NET net_6 49.1579
*CONN
*I I21:Y O
*I I22:A I
*I I23:A I
*CAP
1 net_6:2 15.6182
2 net_6:3 7.4965
3 net_6:4 7.4965
4 net_6:5 18.5467
*RES
1 I21:Y net_6:1 144
2 net_6:1 net_6:2 78.0912
3 net_6:2 net_6:3 9
4 net_6:3 net_6:4 187.412
5 net_6:4 I23:A 137
6 net_6:2 net_6:5 92.7333
7 net_6:5 I22:A 144
*END

*D_NET net_7 216.433
*CONN
*I I24:Y O
*I I25:A I
*I I26:A I
*CAP
1 net_7:2 115.89
2 net_7:3 27.9845
3 net_7:4 27.9845
4 net_7:5 44.5733
*RES
1 I24:Y net_7:1 146
2 net_7:1 net_7:2 23.1781
3 net_7:2 net_7:3 11
4 net_7:3 net_7:4 699.612
5 net_7:4 I26:A 137
6 net_7:2 net_7:5 8.91465
7 net_7:5 I25:A 146
*END

*D_NET net_8 137.737
*CONN
*I I27:Y O
*I I28:A I
*I I29:A I
*I I30:A I
*CAP
1 net_8:2 45.2236
2 net_8:3 8.8389
3 net_8:4 8.8389
4 net_8:5 47.7642
5 net_8:6 8.4546
6 net_8:7 8.4546
7 net_8:8 10.1626
*RES
1 I27:Y net_8:1 135
2 net_8:1 net_8:2 2261.18
3 net_8:2 net_8:3 25
4 net_8:3 net_8:4 1767.78
5 net_8:4 I29:A 120
6 net_8:2 net_8:5 2388.21
7 net_8:5 net_8:6 15
8 net_8:6 net_8:7 845.46
9 net_8:7 I30:A 125
10 net_8:5 net_8:8 508.13
11 net_8:8 I28:A 135
*END

*D_NET net_9 6.05252
*CONN
*I I31:Y O
*I I32:A I
*I I33:A I
*I I34:A I
*CAP
1 net_9:2 1.34227
2 net_9:3 0.292288
3 net_9:4 0.292288
4 net_9:5 0.865016
5 net_9:6 0.810056
6 net_9:7 0.810056
7 net_9:8 1.64055
*RES
1 I31:Y net_9:1 135
2 net_9:1 net_9:2 67.1133
3 net_9:2 net_9:3 15
4 net_9:3 net_9:4 29.2288
5 net_9:4 I33:A 125
6 net_9:2 net_9:5 43.2508
7 net_9:5 net_9:6 15
8 net_9:6 net_9:7 81.0056
9 net_9:7 I34:A 125
10 net_9:5 net_9:8 82.0273
11 net_9:8 I32:A 135
*END
