*SPEF "1.0"
*DESIGN "tau2020_asu"
*PROGRAM "RandomNets"
*T_UNIT 1 NS
*C_UNIT 1 FF
*R_UNIT 1 OHM

*PORTS 


*D_NET net_0 22.225
*CONN
*I I1:Y O
*I I2:A I
*CAP
1 I1:Y 11.1125
2 I2:A 11.1125
*RES
2 I1:Y I2:A 401.125
*END

*D_NET net_1 13.7
*CONN
*I I3:Y O
*I I4:A I
*CAP
1 I3:Y 6.85
2 I4:A 6.85
*RES
2 I3:Y I4:A 358.5
*END

*D_NET net_2 280.5
*CONN
*I I5:Y O
*I I6:A I
*CAP
1 I5:Y 140.25
2 I6:A 140.25
*RES
2 I5:Y I6:A 347.1
*END

*D_NET net_3 148.65
*CONN
*I I7:Y O
*I I8:A I
*CAP
1 I7:Y 74.325
2 I8:A 74.325
*RES
2 I7:Y I8:A 99300
*END

*D_NET net_4 55.2
*CONN
*I I10:A I
*I I9:Y O
*CAP
1 I9:Y 27.6
2 I10:A 27.6
*RES
2 I9:Y I10:A 5760
*END

*D_NET net_5 161.2
*CONN
*I I11:Y O
*I I12:A I
*CAP
1 I11:Y 80.6
2 I12:A 80.6
*RES
2 I11:Y I12:A 8330
*END

*D_NET net_6 155.8
*CONN
*I I13:Y O
*I I14:A I
*CAP
1 I13:Y 77.9
2 I14:A 77.9
*RES
2 I13:Y I14:A 2233.5
*END

*D_NET net_7 23.4
*CONN
*I I15:Y O
*I I16:A I
*CAP
1 I15:Y 11.7
2 I16:A 11.7
*RES
2 I15:Y I16:A 2580
*END

*D_NET net_8 15.25
*CONN
*I I17:Y O
*I I18:A I
*CAP
1 I17:Y 7.625
2 I18:A 7.625
*RES
2 I17:Y I18:A 1022.5
*END

*D_NET net_9 52.1
*CONN
*I I19:Y O
*I I20:A I
*CAP
1 I19:Y 26.05
2 I20:A 26.05
*RES
2 I19:Y I20:A 5430
*END
