*SPEF "1.0"
*DESIGN "tau2020_asu"
*PROGRAM "RandomNets"
*T_UNIT 1 NS
*C_UNIT 1 FF
*R_UNIT 1 OHM

*PORTS 


*D_NET net_0 151.8
*CONN
*I I1:Y O
*I I2:A I
*CAP
1 I1:Y 75.9
2 I2:A 75.9
*RES
2 I1:Y I2:A 2171.5
*END

*D_NET net_1 164.4
*CONN
*I I3:Y O
*I I4:A I
*CAP
1 I3:Y 82.2
2 I4:A 82.2
*RES
2 I3:Y I4:A 16660
*END

*D_NET net_2 165.8
*CONN
*I I5:Y O
*I I6:A I
*CAP
1 I5:Y 82.9
2 I6:A 82.9
*RES
2 I5:Y I6:A 16800
*END

*D_NET net_3 58.8
*CONN
*I I7:Y O
*I I8:A I
*CAP
1 I7:Y 29.4
2 I8:A 29.4
*RES
2 I7:Y I8:A 1017
*END

*D_NET net_4 10
*CONN
*I I10:A I
*I I9:Y O
*CAP
1 I9:Y 5
2 I10:A 5
*RES
2 I9:Y I10:A 1220
*END

*D_NET net_5 124.05
*CONN
*I I11:Y O
*I I12:A I
*CAP
1 I11:Y 62.025
2 I12:A 62.025
*RES
2 I11:Y I12:A 82900
*END

*D_NET net_6 44.6
*CONN
*I I13:Y O
*I I14:A I
*CAP
1 I13:Y 22.3
2 I14:A 22.3
*RES
2 I13:Y I14:A 843.5
*END

*D_NET net_7 63.8
*CONN
*I I15:Y O
*I I16:A I
*CAP
1 I15:Y 31.9
2 I16:A 31.9
*RES
2 I15:Y I16:A 607
*END

*D_NET net_8 14.2
*CONN
*I I17:Y O
*I I18:A I
*CAP
1 I17:Y 7.1
2 I18:A 7.1
*RES
2 I17:Y I18:A 361
*END

*D_NET net_9 360
*CONN
*I I19:Y O
*I I20:A I
*CAP
1 I19:Y 180
2 I20:A 180
*RES
2 I19:Y I20:A 364
*END
