*SPEF "1.0"
*DESIGN "tau2020_asu"
*PROGRAM "RandomNets"
*T_UNIT 1 NS
*C_UNIT 1 FF
*R_UNIT 1 OHM

*PORTS 


*D_NET net_0 16.95
*CONN
*I I1:Y O
*I I2:A I
*CAP
1 I1:Y 8.475
2 I2:A 8.475
*RES
2 I1:Y I2:A 1915
*END

*D_NET net_1 126
*CONN
*I I3:Y O
*I I4:A I
*CAP
1 I3:Y 63
2 I4:A 63
*RES
2 I3:Y I4:A 1849
*END

*D_NET net_2 93
*CONN
*I I5:Y O
*I I6:A I
*CAP
1 I5:Y 46.5
2 I6:A 46.5
*RES
2 I5:Y I6:A 1436.5
*END

*D_NET net_3 21.75
*CONN
*I I7:Y O
*I I8:A I
*CAP
1 I7:Y 10.875
2 I8:A 10.875
*RES
2 I7:Y I8:A 545.875
*END

*D_NET net_4 65.6
*CONN
*I I10:A I
*I I9:Y O
*CAP
1 I9:Y 32.8
2 I10:A 32.8
*RES
2 I9:Y I10:A 616
*END

*D_NET net_5 63.4
*CONN
*I I11:Y O
*I I12:A I
*CAP
1 I11:Y 31.7
2 I12:A 31.7
*RES
2 I11:Y I12:A 3430
*END

*D_NET net_6 108
*CONN
*I I13:Y O
*I I14:A I
*CAP
1 I13:Y 54
2 I14:A 54
*RES
2 I13:Y I14:A 312.6
*END

*D_NET net_7 62.5
*CONN
*I I15:Y O
*I I16:A I
*CAP
1 I15:Y 31.25
2 I16:A 31.25
*RES
2 I15:Y I16:A 6470
*END

*D_NET net_8 91
*CONN
*I I17:Y O
*I I18:A I
*CAP
1 I17:Y 45.5
2 I18:A 45.5
*RES
2 I17:Y I18:A 745
*END

*D_NET net_9 17.1
*CONN
*I I19:Y O
*I I20:A I
*CAP
1 I19:Y 8.55
2 I20:A 8.55
*RES
2 I19:Y I20:A 499.75
*END
