*SPEF "1.0"
*DESIGN "tau2020_nangate"
*PROGRAM "RandomNets"
*T_UNIT 1 NS
*C_UNIT 1 FF
*R_UNIT 1 OHM

*PORTS 


*D_NET net_0 364.5
*CONN
*I I1:ZN O
*I I2:A I
*CAP
1 I1:ZN 182.25
2 I2:A 182.25
*RES
2 I1:ZN I2:A 18485
*END

*D_NET net_1 531.562
*CONN
*I I3:ZN O
*I I4:A I
*CAP
1 I3:ZN 265.781
2 I4:A 265.781
*RES
2 I3:ZN I4:A 2945.81
*END

*D_NET net_2 368.1
*CONN
*I I5:Z O
*I I6:A I
*CAP
1 I5:Z 184.05
2 I6:A 184.05
*RES
2 I5:Z I6:A 18675
*END

*D_NET net_3 327.038
*CONN
*I I7:ZN O
*I I8:A I
*CAP
1 I7:ZN 163.519
2 I8:A 163.519
*RES
2 I7:ZN I8:A 16621.9
*END

*D_NET net_4 406.35
*CONN
*I I10:A I
*I I9:ZN O
*CAP
1 I9:ZN 203.175
2 I10:A 203.175
*RES
2 I9:ZN I10:A 5353.38
*END

*D_NET net_5 502.5
*CONN
*I I11:ZN O
*I I12:A I
*CAP
1 I11:ZN 251.25
2 I12:A 251.25
*RES
2 I11:ZN I12:A 391.5
*END

*D_NET net_6 411.75
*CONN
*I I13:ZN O
*I I14:A I
*CAP
1 I13:ZN 205.875
2 I14:A 205.875
*RES
2 I13:ZN I14:A 2346.75
*END

*D_NET net_7 430.2
*CONN
*I I15:Z O
*I I16:A I
*CAP
1 I15:Z 215.1
2 I16:A 215.1
*RES
2 I15:Z I16:A 21770
*END

*D_NET net_8 399.431
*CONN
*I I17:ZN O
*I I18:A I
*CAP
1 I17:ZN 199.716
2 I18:A 199.716
*RES
2 I17:ZN I18:A 2287.16
*END

*D_NET net_9 537.975
*CONN
*I I19:ZN O
*I I20:A I
*CAP
1 I19:ZN 268.988
2 I20:A 268.988
*RES
2 I19:ZN I20:A 6998.69
*END
