*SPEF "1.0"
*DESIGN "tau2020_nangate"
*PROGRAM "RandomNets"
*T_UNIT 1 NS
*C_UNIT 1 FF
*R_UNIT 1 OHM

*PORTS 


*D_NET net_0 326
*CONN
*I I1:ZN O
*I I2:A I
*CAP
1 I1:ZN 163
2 I2:A 163
*RES
2 I1:ZN I2:A 357.2
*END

*D_NET net_1 134.4
*CONN
*I I3:ZN O
*I I4:A I
*CAP
1 I3:ZN 67.2
2 I4:A 67.2
*RES
2 I3:ZN I4:A 1962
*END

*D_NET net_2 12.45
*CONN
*I I5:ZN O
*I I6:A I
*CAP
1 I5:ZN 6.225
2 I6:A 6.225
*RES
2 I5:ZN I6:A 8500
*END

*D_NET net_3 14.225
*CONN
*I I7:Z O
*I I8:A I
*CAP
1 I7:Z 7.1125
2 I8:A 7.1125
*RES
2 I7:Z I8:A 1642.5
*END

*D_NET net_4 0.2
*CONN
*I I10:A I
*I I9:ZN O
*CAP
1 I9:ZN 0.1
2 I10:A 0.1
*RES
2 I9:ZN I10:A 289
*END

*D_NET net_5 67.1
*CONN
*I I11:Z O
*I I12:A I
*CAP
1 I11:Z 33.55
2 I12:A 33.55
*RES
2 I11:Z I12:A 623.5
*END

*D_NET net_6 10.2
*CONN
*I I13:ZN O
*I I14:A I
*CAP
1 I13:ZN 5.1
2 I14:A 5.1
*RES
2 I13:ZN I14:A 339
*END

*D_NET net_7 63.8
*CONN
*I I15:Z O
*I I16:A I
*CAP
1 I15:Z 31.9
2 I16:A 31.9
*RES
2 I15:Z I16:A 6600
*END

*D_NET net_8 158.6
*CONN
*I I17:ZN O
*I I18:A I
*CAP
1 I17:ZN 79.3
2 I18:A 79.3
*RES
2 I17:ZN I18:A 1083
*END

*D_NET net_9 16.5
*CONN
*I I19:ZN O
*I I20:A I
*CAP
1 I19:ZN 8.25
2 I20:A 8.25
*RES
2 I19:ZN I20:A 295.3
*END
