*SPEF "1.0"
*DESIGN "tau2020_asu"
*PROGRAM "RandomNets"
*T_UNIT 1 NS
*C_UNIT 1 FF
*R_UNIT 1 OHM

*PORTS 


*D_NET net_0 64.5
*CONN
*I I1:Y O
*I I2:A I
*CAP
1 I1:Y 32.25
2 I2:A 32.25
*RES
2 I1:Y I2:A 3485
*END

*D_NET net_1 180.4
*CONN
*I I3:Y O
*I I4:A I
*CAP
1 I3:Y 90.2
2 I4:A 90.2
*RES
2 I3:Y I4:A 18280
*END

*D_NET net_2 55.2
*CONN
*I I5:Y O
*I I6:A I
*CAP
1 I5:Y 27.6
2 I6:A 27.6
*RES
2 I5:Y I6:A 972
*END

*D_NET net_3 154.4
*CONN
*I I7:Y O
*I I8:A I
*CAP
1 I7:Y 77.2
2 I8:A 77.2
*RES
2 I7:Y I8:A 15680
*END

*D_NET net_4 81.4
*CONN
*I I10:A I
*I I9:Y O
*CAP
1 I9:Y 40.7
2 I10:A 40.7
*RES
2 I9:Y I10:A 1299.5
*END

*D_NET net_5 194.25
*CONN
*I I11:Y O
*I I12:A I
*CAP
1 I11:Y 97.125
2 I12:A 97.125
*RES
2 I11:Y I12:A 329.85
*END

*D_NET net_6 92.6
*CONN
*I I13:Y O
*I I14:A I
*CAP
1 I13:Y 46.3
2 I14:A 46.3
*RES
2 I13:Y I14:A 9500
*END

*D_NET net_7 19.6
*CONN
*I I15:Y O
*I I16:A I
*CAP
1 I15:Y 9.8
2 I16:A 9.8
*RES
2 I15:Y I16:A 527
*END

*D_NET net_8 124.95
*CONN
*I I17:Y O
*I I18:A I
*CAP
1 I17:Y 62.475
2 I18:A 62.475
*RES
2 I17:Y I18:A 83500
*END

*D_NET net_9 8.8
*CONN
*I I19:Y O
*I I20:A I
*CAP
1 I19:Y 4.4
2 I20:A 4.4
*RES
2 I19:Y I20:A 1120
*END
