*SPEF "1.0"
*DESIGN "tau2020v2"
*PROGRAM "RandomNets"
*T_UNIT 1 NS
*C_UNIT 1 FF
*R_UNIT 1 OHM

*PORTS 


*D_NET net_0 51
*CONN
*I I1:Y O
*I I2:A I
*CAP
1 I1:Y 25.5
2 I2:A 25.5
*RES
2 I1:Y I2:A 302.2
*END

*D_NET net_1 21.675
*CONN
*I I3:Y O
*I I4:A I
*CAP
1 I3:Y 10.8375
2 I4:A 10.8375
*RES
2 I3:Y I4:A 398.375
*END

*D_NET net_10 94.75
*CONN
*I I21:Y O
*I I22:A I
*CAP
1 I21:Y 47.375
2 I22:A 47.375
*RES
2 I21:Y I22:A 310.95
*END

*D_NET net_11 152.4
*CONN
*I I23:Y O
*I I24:A I
*CAP
1 I23:Y 76.2
2 I24:A 76.2
*RES
2 I23:Y I24:A 7890
*END

*D_NET net_12 95.1
*CONN
*I I25:Y O
*I I26:A I
*CAP
1 I25:Y 47.55
2 I26:A 47.55
*RES
2 I25:Y I26:A 765.5
*END

*D_NET net_13 13.3438
*CONN
*I I27:Y O
*I I28:A I
*CAP
1 I27:Y 6.67188
2 I28:A 6.67188
*RES
2 I27:Y I28:A 294.669
*END

*D_NET net_14 12.475
*CONN
*I I29:Y O
*I I30:A I
*CAP
1 I29:Y 6.2375
2 I30:A 6.2375
*RES
2 I29:Y I30:A 1467.5
*END

*D_NET net_15 176.5
*CONN
*I I31:Y O
*I I32:A I
*CAP
1 I31:Y 88.25
2 I32:A 88.25
*RES
2 I31:Y I32:A 327.3
*END

*D_NET net_16 18
*CONN
*I I33:Y O
*I I34:A I
*CAP
1 I33:Y 9
2 I34:A 9
*RES
2 I33:Y I34:A 1170
*END

*D_NET net_17 20.1
*CONN
*I I35:Y O
*I I36:A I
*CAP
1 I35:Y 10.05
2 I36:A 10.05
*RES
2 I35:Y I36:A 533.25
*END

*D_NET net_18 177
*CONN
*I I37:Y O
*I I38:A I
*CAP
1 I37:Y 88.5
2 I38:A 88.5
*RES
2 I37:Y I38:A 2494.5
*END

*D_NET net_19 123
*CONN
*I I39:Y O
*I I40:A I
*CAP
1 I39:Y 61.5
2 I40:A 61.5
*RES
2 I39:Y I40:A 82200
*END

*D_NET net_2 40
*CONN
*I I5:Y O
*I I6:A I
*CAP
1 I5:Y 20
2 I6:A 20
*RES
2 I5:Y I6:A 778
*END

*D_NET net_20 51.8
*CONN
*I I41:Y O
*I I42:A I
*CAP
1 I41:Y 25.9
2 I42:A 25.9
*RES
2 I41:Y I42:A 5420
*END

*D_NET net_21 140.2
*CONN
*I I43:Y O
*I I44:A I
*CAP
1 I43:Y 70.1
2 I44:A 70.1
*RES
2 I43:Y I44:A 14240
*END

*D_NET net_22 84.8
*CONN
*I I45:Y O
*I I46:A I
*CAP
1 I45:Y 42.4
2 I46:A 42.4
*RES
2 I45:Y I46:A 712
*END

*D_NET net_23 73
*CONN
*I I47:Y O
*I I48:A I
*CAP
1 I47:Y 36.5
2 I48:A 36.5
*RES
2 I47:Y I48:A 1186.5
*END

*D_NET net_24 193.4
*CONN
*I I49:Y O
*I I50:A I
*CAP
1 I49:Y 96.7
2 I50:A 96.7
*RES
2 I49:Y I50:A 2703.5
*END

*D_NET net_25 16.55
*CONN
*I I51:Y O
*I I52:A I
*CAP
1 I51:Y 8.275
2 I52:A 8.275
*RES
2 I51:Y I52:A 1895
*END

*D_NET net_26 339.5
*CONN
*I I53:Y O
*I I54:A I
*CAP
1 I53:Y 169.75
2 I54:A 169.75
*RES
2 I53:Y I54:A 359.9
*END

*D_NET net_27 12.8
*CONN
*I I55:Y O
*I I56:A I
*CAP
1 I55:Y 6.4
2 I56:A 6.4
*RES
2 I55:Y I56:A 900
*END

*D_NET net_28 170.6
*CONN
*I I57:Y O
*I I58:A I
*CAP
1 I57:Y 85.3
2 I58:A 85.3
*RES
2 I57:Y I58:A 2418.5
*END

*D_NET net_29 148.2
*CONN
*I I59:Y O
*I I60:A I
*CAP
1 I59:Y 74.1
2 I60:A 74.1
*RES
2 I59:Y I60:A 2130.5
*END

*D_NET net_3 59.4
*CONN
*I I7:Y O
*I I8:A I
*CAP
1 I7:Y 29.7
2 I8:A 29.7
*RES
2 I7:Y I8:A 587
*END

*D_NET net_30 154.2
*CONN
*I I61:Y O
*I I62:A I
*CAP
1 I61:Y 77.1
2 I62:A 77.1
*RES
2 I61:Y I62:A 15640
*END

*D_NET net_31 61.4
*CONN
*I I63:Y O
*I I64:A I
*CAP
1 I63:Y 30.7
2 I64:A 30.7
*RES
2 I63:Y I64:A 1049.5
*END

*D_NET net_32 107.8
*CONN
*I I65:Y O
*I I66:A I
*CAP
1 I65:Y 53.9
2 I66:A 53.9
*RES
2 I65:Y I66:A 827
*END

*D_NET net_33 36.5
*CONN
*I I67:Y O
*I I68:A I
*CAP
1 I67:Y 18.25
2 I68:A 18.25
*RES
2 I67:Y I68:A 299.3
*END

*D_NET net_34 30.4
*CONN
*I I69:Y O
*I I70:A I
*CAP
1 I69:Y 15.2
2 I70:A 15.2
*RES
2 I69:Y I70:A 658
*END

*D_NET net_35 98.5
*CONN
*I I71:Y O
*I I72:A I
*CAP
1 I71:Y 49.25
2 I72:A 49.25
*RES
2 I71:Y I72:A 311.7
*END

*D_NET net_36 87.125
*CONN
*I I73:Y O
*I I74:A I
*CAP
1 I73:Y 43.5625
2 I74:A 43.5625
*RES
2 I73:Y I74:A 308.425
*END

*D_NET net_37 95.7
*CONN
*I I75:Y O
*I I76:A I
*CAP
1 I75:Y 47.85
2 I76:A 47.85
*RES
2 I75:Y I76:A 5035
*END

*D_NET net_38 21.85
*CONN
*I I77:Y O
*I I78:A I
*CAP
1 I77:Y 10.925
2 I78:A 10.925
*RES
2 I77:Y I78:A 399.25
*END

*D_NET net_39 131.4
*CONN
*I I79:Y O
*I I80:A I
*CAP
1 I79:Y 65.7
2 I80:A 65.7
*RES
2 I79:Y I80:A 6820
*END

*D_NET net_4 93.6
*CONN
*I I10:A I
*I I9:Y O
*CAP
1 I9:Y 46.8
2 I10:A 46.8
*RES
2 I9:Y I10:A 1448
*END

*D_NET net_40 90
*CONN
*I I81:Y O
*I I82:A I
*CAP
1 I81:Y 45
2 I82:A 45
*RES
2 I81:Y I82:A 9240
*END

*D_NET net_41 49.7
*CONN
*I I83:Y O
*I I84:A I
*CAP
1 I83:Y 24.85
2 I84:A 24.85
*RES
2 I83:Y I84:A 2755
*END

*D_NET net_42 162.6
*CONN
*I I85:Y O
*I I86:A I
*CAP
1 I85:Y 81.3
2 I86:A 81.3
*RES
2 I85:Y I86:A 8380
*END

*D_NET net_43 69.8
*CONN
*I I87:Y O
*I I88:A I
*CAP
1 I87:Y 34.9
2 I88:A 34.9
*RES
2 I87:Y I88:A 1150.5
*END

*D_NET net_44 16.9
*CONN
*I I89:Y O
*I I90:A I
*CAP
1 I89:Y 8.45
2 I90:A 8.45
*RES
2 I89:Y I90:A 489.25
*END

*D_NET net_45 38.925
*CONN
*I I91:Y O
*I I92:A I
*CAP
1 I91:Y 19.4625
2 I92:A 19.4625
*RES
2 I91:Y I92:A 26150
*END

*D_NET net_46 15.5
*CONN
*I I93:Y O
*I I94:A I
*CAP
1 I93:Y 7.75
2 I94:A 7.75
*RES
2 I93:Y I94:A 365.5
*END

*D_NET net_47 180.2
*CONN
*I I95:Y O
*I I96:A I
*CAP
1 I95:Y 90.1
2 I96:A 90.1
*RES
2 I95:Y I96:A 9270
*END

*D_NET net_48 86.4
*CONN
*I I97:Y O
*I I98:A I
*CAP
1 I97:Y 43.2
2 I98:A 43.2
*RES
2 I97:Y I98:A 1366
*END

*D_NET net_49 72.6
*CONN
*I I100:A I
*I I99:Y O
*CAP
1 I99:Y 36.3
2 I100:A 36.3
*RES
2 I99:Y I100:A 3890
*END

*D_NET net_5 42.2
*CONN
*I I11:Y O
*I I12:A I
*CAP
1 I11:Y 21.1
2 I12:A 21.1
*RES
2 I11:Y I12:A 809.5
*END

*D_NET net_50 183.2
*CONN
*I I101:Y O
*I I102:A I
*CAP
1 I101:Y 91.6
2 I102:A 91.6
*RES
2 I101:Y I102:A 9430
*END

*D_NET net_51 36
*CONN
*I I103:Y O
*I I104:A I
*CAP
1 I103:Y 18
2 I104:A 18
*RES
2 I103:Y I104:A 298.2
*END

*D_NET net_52 98.7
*CONN
*I I105:Y O
*I I106:A I
*CAP
1 I105:Y 49.35
2 I106:A 49.35
*RES
2 I105:Y I106:A 66000
*END

*D_NET net_53 61.8
*CONN
*I I107:Y O
*I I108:A I
*CAP
1 I107:Y 30.9
2 I108:A 30.9
*RES
2 I107:Y I108:A 6400
*END

*D_NET net_54 105
*CONN
*I I109:Y O
*I I110:A I
*CAP
1 I109:Y 52.5
2 I110:A 52.5
*RES
2 I109:Y I110:A 813
*END

*D_NET net_55 245
*CONN
*I I111:Y O
*I I112:A I
*CAP
1 I111:Y 122.5
2 I112:A 122.5
*RES
2 I111:Y I112:A 341
*END

*D_NET net_56 139.4
*CONN
*I I113:Y O
*I I114:A I
*CAP
1 I113:Y 69.7
2 I114:A 69.7
*RES
2 I113:Y I114:A 7220
*END

*D_NET net_57 63.5
*CONN
*I I115:Y O
*I I116:A I
*CAP
1 I115:Y 31.75
2 I116:A 31.75
*RES
2 I115:Y I116:A 304.7
*END

*D_NET net_58 72.4
*CONN
*I I117:Y O
*I I118:A I
*CAP
1 I117:Y 36.2
2 I118:A 36.2
*RES
2 I117:Y I118:A 1187
*END

*D_NET net_59 26.6
*CONN
*I I119:Y O
*I I120:A I
*CAP
1 I119:Y 13.3
2 I120:A 13.3
*RES
2 I119:Y I120:A 2880
*END

*D_NET net_6 138
*CONN
*I I13:Y O
*I I14:A I
*CAP
1 I13:Y 69
2 I14:A 69
*RES
2 I13:Y I14:A 7160
*END

*D_NET net_60 98.2
*CONN
*I I121:Y O
*I I122:A I
*CAP
1 I121:Y 49.1
2 I122:A 49.1
*RES
2 I121:Y I122:A 5170
*END

*D_NET net_61 158.2
*CONN
*I I123:Y O
*I I124:A I
*CAP
1 I123:Y 79.1
2 I124:A 79.1
*RES
2 I123:Y I124:A 2259.5
*END

*D_NET net_62 70.4
*CONN
*I I125:Y O
*I I126:A I
*CAP
1 I125:Y 35.2
2 I126:A 35.2
*RES
2 I125:Y I126:A 642
*END

*D_NET net_63 31.4
*CONN
*I I127:Y O
*I I128:A I
*CAP
1 I127:Y 15.7
2 I128:A 15.7
*RES
2 I127:Y I128:A 670.5
*END

*D_NET net_64 19.4
*CONN
*I I129:Y O
*I I130:A I
*CAP
1 I129:Y 9.7
2 I130:A 9.7
*RES
2 I129:Y I130:A 1230
*END

*D_NET net_65 47.85
*CONN
*I I131:Y O
*I I132:A I
*CAP
1 I131:Y 23.925
2 I132:A 23.925
*RES
2 I131:Y I132:A 5005
*END

*D_NET net_66 139.5
*CONN
*I I133:Y O
*I I134:A I
*CAP
1 I133:Y 69.75
2 I134:A 69.75
*RES
2 I133:Y I134:A 319.9
*END

*D_NET net_67 63.6
*CONN
*I I135:Y O
*I I136:A I
*CAP
1 I135:Y 31.8
2 I136:A 31.8
*RES
2 I135:Y I136:A 6580
*END

*D_NET net_68 52.9
*CONN
*I I137:Y O
*I I138:A I
*CAP
1 I137:Y 26.45
2 I138:A 26.45
*RES
2 I137:Y I138:A 943.25
*END

*D_NET net_69 132.8
*CONN
*I I139:Y O
*I I140:A I
*CAP
1 I139:Y 66.4
2 I140:A 66.4
*RES
2 I139:Y I140:A 952
*END

*D_NET net_7 21.2
*CONN
*I I15:Y O
*I I16:A I
*CAP
1 I15:Y 10.6
2 I16:A 10.6
*RES
2 I15:Y I16:A 2360
*END

*D_NET net_70 19.4
*CONN
*I I141:Y O
*I I142:A I
*CAP
1 I141:Y 9.7
2 I142:A 9.7
*RES
2 I141:Y I142:A 516.5
*END

*D_NET net_71 136.6
*CONN
*I I143:Y O
*I I144:A I
*CAP
1 I143:Y 68.3
2 I144:A 68.3
*RES
2 I143:Y I144:A 1989.5
*END

*D_NET net_72 196
*CONN
*I I145:Y O
*I I146:A I
*CAP
1 I145:Y 98
2 I146:A 98
*RES
2 I145:Y I146:A 10070
*END

*D_NET net_73 22.8
*CONN
*I I147:Y O
*I I148:A I
*CAP
1 I147:Y 11.4
2 I148:A 11.4
*RES
2 I147:Y I148:A 1400
*END

*D_NET net_74 3
*CONN
*I I149:Y O
*I I150:A I
*CAP
1 I149:Y 1.5
2 I150:A 1.5
*RES
2 I149:Y I150:A 410
*END

*D_NET net_75 122.25
*CONN
*I I151:Y O
*I I152:A I
*CAP
1 I151:Y 61.125
2 I152:A 61.125
*RES
2 I151:Y I152:A 315.45
*END

*D_NET net_76 49.8
*CONN
*I I153:Y O
*I I154:A I
*CAP
1 I153:Y 24.9
2 I154:A 24.9
*RES
2 I153:Y I154:A 33400
*END

*D_NET net_77 16.0625
*CONN
*I I155:Y O
*I I156:A I
*CAP
1 I155:Y 8.03125
2 I156:A 8.03125
*RES
2 I155:Y I156:A 294.212
*END

*D_NET net_78 17.7
*CONN
*I I157:Y O
*I I158:A I
*CAP
1 I157:Y 8.85
2 I158:A 8.85
*RES
2 I157:Y I158:A 499.25
*END

*D_NET net_79 73
*CONN
*I I159:Y O
*I I160:A I
*CAP
1 I159:Y 36.5
2 I160:A 36.5
*RES
2 I159:Y I160:A 7520
*END

*D_NET net_8 21.0375
*CONN
*I I17:Y O
*I I18:A I
*CAP
1 I17:Y 10.5187
2 I18:A 10.5187
*RES
2 I17:Y I18:A 14225
*END

*D_NET net_80 89
*CONN
*I I161:Y O
*I I162:A I
*CAP
1 I161:Y 44.5
2 I162:A 44.5
*RES
2 I161:Y I162:A 4720
*END

*D_NET net_81 86
*CONN
*I I163:Y O
*I I164:A I
*CAP
1 I163:Y 43
2 I164:A 43
*RES
2 I163:Y I164:A 718
*END

*D_NET net_82 52.4
*CONN
*I I165:Y O
*I I166:A I
*CAP
1 I165:Y 26.2
2 I166:A 26.2
*RES
2 I165:Y I166:A 2870
*END

*D_NET net_83 62.4
*CONN
*I I167:Y O
*I I168:A I
*CAP
1 I167:Y 31.2
2 I168:A 31.2
*RES
2 I167:Y I168:A 1054
*END

*D_NET net_84 75.6
*CONN
*I I169:Y O
*I I170:A I
*CAP
1 I169:Y 37.8
2 I170:A 37.8
*RES
2 I169:Y I170:A 4040
*END

*D_NET net_85 141.2
*CONN
*I I171:Y O
*I I172:A I
*CAP
1 I171:Y 70.6
2 I172:A 70.6
*RES
2 I171:Y I172:A 14340
*END

*D_NET net_86 12.375
*CONN
*I I173:Y O
*I I174:A I
*CAP
1 I173:Y 6.1875
2 I174:A 6.1875
*RES
2 I173:Y I174:A 878.75
*END

*D_NET net_87 133.4
*CONN
*I I175:Y O
*I I176:A I
*CAP
1 I175:Y 66.7
2 I176:A 66.7
*RES
2 I175:Y I176:A 1953.5
*END

*D_NET net_88 21.6
*CONN
*I I177:Y O
*I I178:A I
*CAP
1 I177:Y 10.8
2 I178:A 10.8
*RES
2 I177:Y I178:A 2380
*END

*D_NET net_89 125
*CONN
*I I179:Y O
*I I180:A I
*CAP
1 I179:Y 62.5
2 I180:A 62.5
*RES
2 I179:Y I180:A 317
*END

*D_NET net_9 118.8
*CONN
*I I19:Y O
*I I20:A I
*CAP
1 I19:Y 59.4
2 I20:A 59.4
*RES
2 I19:Y I20:A 882
*END

*D_NET net_90 26.95
*CONN
*I I181:Y O
*I I182:A I
*CAP
1 I181:Y 13.475
2 I182:A 13.475
*RES
2 I181:Y I182:A 424.75
*END

*D_NET net_91 22.2
*CONN
*I I183:Y O
*I I184:A I
*CAP
1 I183:Y 11.1
2 I184:A 11.1
*RES
2 I183:Y I184:A 1370
*END

*D_NET net_92 20.6
*CONN
*I I185:Y O
*I I186:A I
*CAP
1 I185:Y 10.3
2 I186:A 10.3
*RES
2 I185:Y I186:A 1280
*END

*D_NET net_93 17.4
*CONN
*I I187:Y O
*I I188:A I
*CAP
1 I187:Y 8.7
2 I188:A 8.7
*RES
2 I187:Y I188:A 11800
*END

*D_NET net_94 91.8
*CONN
*I I189:Y O
*I I190:A I
*CAP
1 I189:Y 45.9
2 I190:A 45.9
*RES
2 I189:Y I190:A 61400
*END

*D_NET net_95 42.2
*CONN
*I I191:Y O
*I I192:A I
*CAP
1 I191:Y 21.1
2 I192:A 21.1
*RES
2 I191:Y I192:A 805.5
*END

*D_NET net_96 86.1
*CONN
*I I193:Y O
*I I194:A I
*CAP
1 I193:Y 43.05
2 I194:A 43.05
*RES
2 I193:Y I194:A 8850
*END

*D_NET net_97 180.4
*CONN
*I I195:Y O
*I I196:A I
*CAP
1 I195:Y 90.2
2 I196:A 90.2
*RES
2 I195:Y I196:A 18280
*END

*D_NET net_98 46.8
*CONN
*I I197:Y O
*I I198:A I
*CAP
1 I197:Y 23.4
2 I198:A 23.4
*RES
2 I197:Y I198:A 871
*END

*D_NET net_99 57.8
*CONN
*I I199:Y O
*I I200:A I
*CAP
1 I199:Y 28.9
2 I200:A 28.9
*RES
2 I199:Y I200:A 3160
*END
