*SPEF "1.0"
*DESIGN "tau2020_nangate"
*PROGRAM "RandomNets"
*T_UNIT 1 NS
*C_UNIT 1 FF
*R_UNIT 1 OHM

*PORTS 


*D_NET net_0 488
*CONN
*I I1:ZN O
*I I2:A I
*CAP
1 I1:ZN 244
2 I2:A 244
*RES
2 I1:ZN I2:A 388.6
*END

*D_NET net_1 419
*CONN
*I I3:ZN O
*I I4:A I
*CAP
1 I3:ZN 209.5
2 I4:A 209.5
*RES
2 I3:ZN I4:A 374.8
*END

*D_NET net_2 43.75
*CONN
*I I5:Z O
*I I6:A I
*CAP
1 I5:Z 21.875
2 I6:A 21.875
*RES
2 I5:Z I6:A 820.875
*END

*D_NET net_3 39.9
*CONN
*I I7:Z O
*I I8:A I
*CAP
1 I7:Z 19.95
2 I8:A 19.95
*RES
2 I7:Z I8:A 26800
*END

*D_NET net_4 111.8
*CONN
*I I10:A I
*I I9:ZN O
*CAP
1 I9:ZN 55.9
2 I10:A 55.9
*RES
2 I9:ZN I10:A 1675.5
*END

*D_NET net_5 25.2
*CONN
*I I11:ZN O
*I I12:A I
*CAP
1 I11:ZN 12.6
2 I12:A 12.6
*RES
2 I11:ZN I12:A 2760
*END

*D_NET net_6 65.2
*CONN
*I I13:Z O
*I I14:A I
*CAP
1 I13:Z 32.6
2 I14:A 32.6
*RES
2 I13:Z I14:A 3510
*END

*D_NET net_7 48
*CONN
*I I15:ZN O
*I I16:A I
*CAP
1 I15:ZN 24
2 I16:A 24
*RES
2 I15:ZN I16:A 5040
*END

*D_NET net_8 34.4
*CONN
*I I17:Z O
*I I18:A I
*CAP
1 I17:Z 17.2
2 I18:A 17.2
*RES
2 I17:Z I18:A 460
*END

*D_NET net_9 71.9
*CONN
*I I19:Z O
*I I20:A I
*CAP
1 I19:Z 35.95
2 I20:A 35.95
*RES
2 I19:Z I20:A 3865
*END
