*SPEF "1.0"
*DESIGN "tau2020_nangate"
*PROGRAM "RandomNets"
*T_UNIT 1 NS
*C_UNIT 1 FF
*R_UNIT 1 OHM

*PORTS 


*D_NET net_0 31
*CONN
*I I1:Z O
*I I2:A I
*CAP
1 I1:Z 15.5
2 I2:A 15.5
*RES
2 I1:Z I2:A 665.5
*END

*D_NET net_1 88.95
*CONN
*I I3:ZN O
*I I4:A I
*CAP
1 I3:ZN 44.475
2 I4:A 44.475
*RES
2 I3:ZN I4:A 59500
*END

*D_NET net_2 83.5
*CONN
*I I5:ZN O
*I I6:A I
*CAP
1 I5:ZN 41.75
2 I6:A 41.75
*RES
2 I5:ZN I6:A 308.7
*END

*D_NET net_3 42
*CONN
*I I7:Z O
*I I8:A I
*CAP
1 I7:Z 21
2 I8:A 21
*RES
2 I7:Z I8:A 299.4
*END

*D_NET net_4 33.6
*CONN
*I I10:A I
*I I9:ZN O
*CAP
1 I9:ZN 16.8
2 I10:A 16.8
*RES
2 I9:ZN I10:A 3600
*END

*D_NET net_5 151
*CONN
*I I11:ZN O
*I I12:A I
*CAP
1 I11:ZN 75.5
2 I12:A 75.5
*RES
2 I11:ZN I12:A 2173.5
*END

*D_NET net_6 187
*CONN
*I I13:ZN O
*I I14:A I
*CAP
1 I13:ZN 93.5
2 I14:A 93.5
*RES
2 I13:ZN I14:A 2611.5
*END

*D_NET net_7 111.4
*CONN
*I I15:ZN O
*I I16:A I
*CAP
1 I15:ZN 55.7
2 I16:A 55.7
*RES
2 I15:ZN I16:A 5820
*END

*D_NET net_8 39.95
*CONN
*I I17:ZN O
*I I18:A I
*CAP
1 I17:ZN 19.975
2 I18:A 19.975
*RES
2 I17:ZN I18:A 4215
*END

*D_NET net_9 13
*CONN
*I I19:ZN O
*I I20:A I
*CAP
1 I19:ZN 6.5
2 I20:A 6.5
*RES
2 I19:ZN I20:A 1520
*END
