*SPEF "1.0"
*DESIGN "tau2020v2"
*PROGRAM "RandomNets"
*T_UNIT 1 NS
*C_UNIT 1 FF
*R_UNIT 1 OHM

*PORTS 


*D_NET net_0 330.8
*CONN
*I I1:Y O
*I I2:A I
*CAP
1 I1:Y 165.4
2 I2:A 165.4
*RES
2 I1:Y I2:A 4421
*END

*D_NET net_1 217.2
*CONN
*I I3:Y O
*I I4:A I
*CAP
1 I3:Y 108.6
2 I4:A 108.6
*RES
2 I3:Y I4:A 21940
*END

*D_NET net_10 64
*CONN
*I I21:Y O
*I I22:A I
*CAP
1 I21:Y 32
2 I22:A 32
*RES
2 I21:Y I22:A 6620
*END

*D_NET net_11 316.8
*CONN
*I I23:Y O
*I I24:A I
*CAP
1 I23:Y 158.4
2 I24:A 158.4
*RES
2 I23:Y I24:A 16090
*END

*D_NET net_12 893
*CONN
*I I25:Y O
*I I26:A I
*CAP
1 I25:Y 446.5
2 I26:A 446.5
*RES
2 I25:Y I26:A 469.6
*END

*D_NET net_13 41.8
*CONN
*I I27:Y O
*I I28:A I
*CAP
1 I27:Y 20.9
2 I28:A 20.9
*RES
2 I27:Y I28:A 796.5
*END

*D_NET net_14 120.8
*CONN
*I I29:Y O
*I I30:A I
*CAP
1 I29:Y 60.4
2 I30:A 60.4
*RES
2 I29:Y I30:A 6310
*END

*D_NET net_15 42.4
*CONN
*I I31:Y O
*I I32:A I
*CAP
1 I31:Y 21.2
2 I32:A 21.2
*RES
2 I31:Y I32:A 2370
*END

*D_NET net_16 139.8
*CONN
*I I33:Y O
*I I34:A I
*CAP
1 I33:Y 69.9
2 I34:A 69.9
*RES
2 I33:Y I34:A 2033.5
*END

*D_NET net_17 131
*CONN
*I I35:Y O
*I I36:A I
*CAP
1 I35:Y 65.5
2 I36:A 65.5
*RES
2 I35:Y I36:A 1919.5
*END

*D_NET net_18 284.2
*CONN
*I I37:Y O
*I I38:A I
*CAP
1 I37:Y 142.1
2 I38:A 142.1
*RES
2 I37:Y I38:A 28640
*END

*D_NET net_19 71
*CONN
*I I39:Y O
*I I40:A I
*CAP
1 I39:Y 35.5
2 I40:A 35.5
*RES
2 I39:Y I40:A 3800
*END

*D_NET net_2 999.5
*CONN
*I I5:Y O
*I I6:A I
*CAP
1 I5:Y 499.75
2 I6:A 499.75
*RES
2 I5:Y I6:A 490.9
*END

*D_NET net_20 205.2
*CONN
*I I41:Y O
*I I42:A I
*CAP
1 I41:Y 102.6
2 I42:A 102.6
*RES
2 I41:Y I42:A 2843
*END

*D_NET net_21 159.8
*CONN
*I I43:Y O
*I I44:A I
*CAP
1 I43:Y 79.9
2 I44:A 79.9
*RES
2 I43:Y I44:A 8260
*END

*D_NET net_22 295
*CONN
*I I45:Y O
*I I46:A I
*CAP
1 I45:Y 147.5
2 I46:A 147.5
*RES
2 I45:Y I46:A 29740
*END

*D_NET net_23 337
*CONN
*I I47:Y O
*I I48:A I
*CAP
1 I47:Y 168.5
2 I48:A 168.5
*RES
2 I47:Y I48:A 1975
*END

*D_NET net_24 131.6
*CONN
*I I49:Y O
*I I50:A I
*CAP
1 I49:Y 65.8
2 I50:A 65.8
*RES
2 I49:Y I50:A 1923
*END

*D_NET net_25 141.4
*CONN
*I I51:Y O
*I I52:A I
*CAP
1 I51:Y 70.7
2 I52:A 70.7
*RES
2 I51:Y I52:A 995
*END

*D_NET net_26 752.5
*CONN
*I I53:Y O
*I I54:A I
*CAP
1 I53:Y 376.25
2 I54:A 376.25
*RES
2 I53:Y I54:A 442.5
*END

*D_NET net_27 379.5
*CONN
*I I55:Y O
*I I56:A I
*CAP
1 I55:Y 189.75
2 I56:A 189.75
*RES
2 I55:Y I56:A 366.9
*END

*D_NET net_28 3.8
*CONN
*I I57:Y O
*I I58:A I
*CAP
1 I57:Y 1.9
2 I58:A 1.9
*RES
2 I57:Y I58:A 620
*END

*D_NET net_29 239.6
*CONN
*I I59:Y O
*I I60:A I
*CAP
1 I59:Y 119.8
2 I60:A 119.8
*RES
2 I59:Y I60:A 3281
*END

*D_NET net_3 187.4
*CONN
*I I7:Y O
*I I8:A I
*CAP
1 I7:Y 93.7
2 I8:A 93.7
*RES
2 I7:Y I8:A 1225
*END

*D_NET net_30 395.8
*CONN
*I I61:Y O
*I I62:A I
*CAP
1 I61:Y 197.9
2 I62:A 197.9
*RES
2 I61:Y I62:A 39800
*END

*D_NET net_31 319.2
*CONN
*I I63:Y O
*I I64:A I
*CAP
1 I63:Y 159.6
2 I64:A 159.6
*RES
2 I63:Y I64:A 4268
*END

*D_NET net_32 779.5
*CONN
*I I65:Y O
*I I66:A I
*CAP
1 I65:Y 389.75
2 I66:A 389.75
*RES
2 I65:Y I66:A 446.9
*END

*D_NET net_33 195.8
*CONN
*I I67:Y O
*I I68:A I
*CAP
1 I67:Y 97.9
2 I68:A 97.9
*RES
2 I67:Y I68:A 2725.5
*END

*D_NET net_34 291.8
*CONN
*I I69:Y O
*I I70:A I
*CAP
1 I69:Y 145.9
2 I70:A 145.9
*RES
2 I69:Y I70:A 1747
*END

*D_NET net_35 150.4
*CONN
*I I71:Y O
*I I72:A I
*CAP
1 I71:Y 75.2
2 I72:A 75.2
*RES
2 I71:Y I72:A 2166
*END

*D_NET net_36 67.6
*CONN
*I I73:Y O
*I I74:A I
*CAP
1 I73:Y 33.8
2 I74:A 33.8
*RES
2 I73:Y I74:A 3630
*END

*D_NET net_37 182.2
*CONN
*I I75:Y O
*I I76:A I
*CAP
1 I75:Y 91.1
2 I76:A 91.1
*RES
2 I75:Y I76:A 1201
*END

*D_NET net_38 299.2
*CONN
*I I77:Y O
*I I78:A I
*CAP
1 I77:Y 149.6
2 I78:A 149.6
*RES
2 I77:Y I78:A 30140
*END

*D_NET net_39 45
*CONN
*I I79:Y O
*I I80:A I
*CAP
1 I79:Y 22.5
2 I80:A 22.5
*RES
2 I79:Y I80:A 4720
*END

*D_NET net_4 80
*CONN
*I I10:A I
*I I9:Y O
*CAP
1 I9:Y 40
2 I10:A 40
*RES
2 I9:Y I10:A 1286
*END

*D_NET net_40 357.6
*CONN
*I I81:Y O
*I I82:A I
*CAP
1 I81:Y 178.8
2 I82:A 178.8
*RES
2 I81:Y I82:A 2076
*END

*D_NET net_41 79.35
*CONN
*I I83:Y O
*I I84:A I
*CAP
1 I83:Y 39.675
2 I84:A 39.675
*RES
2 I83:Y I84:A 53100
*END

*D_NET net_42 3.8
*CONN
*I I85:Y O
*I I86:A I
*CAP
1 I85:Y 1.9
2 I86:A 1.9
*RES
2 I85:Y I86:A 440
*END

*D_NET net_43 52.8
*CONN
*I I87:Y O
*I I88:A I
*CAP
1 I87:Y 26.4
2 I88:A 26.4
*RES
2 I87:Y I88:A 2890
*END

*D_NET net_44 94.2
*CONN
*I I89:Y O
*I I90:A I
*CAP
1 I89:Y 47.1
2 I90:A 47.1
*RES
2 I89:Y I90:A 9660
*END

*D_NET net_45 399.6
*CONN
*I I91:Y O
*I I92:A I
*CAP
1 I91:Y 199.8
2 I92:A 199.8
*RES
2 I91:Y I92:A 5281
*END

*D_NET net_46 302.6
*CONN
*I I93:Y O
*I I94:A I
*CAP
1 I93:Y 151.3
2 I94:A 151.3
*RES
2 I93:Y I94:A 30480
*END

*D_NET net_47 205.4
*CONN
*I I95:Y O
*I I96:A I
*CAP
1 I95:Y 102.7
2 I96:A 102.7
*RES
2 I95:Y I96:A 1315
*END

*D_NET net_48 326.5
*CONN
*I I97:Y O
*I I98:A I
*CAP
1 I97:Y 163.25
2 I98:A 163.25
*RES
2 I97:Y I98:A 356.3
*END

*D_NET net_49 295.6
*CONN
*I I100:A I
*I I99:Y O
*CAP
1 I99:Y 147.8
2 I100:A 147.8
*RES
2 I99:Y I100:A 15050
*END

*D_NET net_5 43.8
*CONN
*I I11:Y O
*I I12:A I
*CAP
1 I11:Y 21.9
2 I12:A 21.9
*RES
2 I11:Y I12:A 507
*END

*D_NET net_50 366.6
*CONN
*I I101:Y O
*I I102:A I
*CAP
1 I101:Y 183.3
2 I102:A 183.3
*RES
2 I101:Y I102:A 2123
*END

*D_NET net_51 350.2
*CONN
*I I103:Y O
*I I104:A I
*CAP
1 I103:Y 175.1
2 I104:A 175.1
*RES
2 I103:Y I104:A 4659.5
*END

*D_NET net_52 2
*CONN
*I I105:Y O
*I I106:A I
*CAP
1 I105:Y 1
2 I106:A 1
*RES
2 I105:Y I106:A 298
*END

*D_NET net_53 52.05
*CONN
*I I107:Y O
*I I108:A I
*CAP
1 I107:Y 26.025
2 I108:A 26.025
*RES
2 I107:Y I108:A 34900
*END

*D_NET net_54 208
*CONN
*I I109:Y O
*I I110:A I
*CAP
1 I109:Y 104
2 I110:A 104
*RES
2 I109:Y I110:A 2874
*END

*D_NET net_55 389
*CONN
*I I111:Y O
*I I112:A I
*CAP
1 I111:Y 194.5
2 I112:A 194.5
*RES
2 I111:Y I112:A 368.8
*END

*D_NET net_56 286
*CONN
*I I113:Y O
*I I114:A I
*CAP
1 I113:Y 143
2 I114:A 143
*RES
2 I113:Y I114:A 3849
*END

*D_NET net_57 399
*CONN
*I I115:Y O
*I I116:A I
*CAP
1 I115:Y 199.5
2 I116:A 199.5
*RES
2 I115:Y I116:A 20210
*END

*D_NET net_58 373.6
*CONN
*I I117:Y O
*I I118:A I
*CAP
1 I117:Y 186.8
2 I118:A 186.8
*RES
2 I117:Y I118:A 37580
*END

*D_NET net_59 11.2
*CONN
*I I119:Y O
*I I120:A I
*CAP
1 I119:Y 5.6
2 I120:A 5.6
*RES
2 I119:Y I120:A 422
*END

*D_NET net_6 399
*CONN
*I I13:Y O
*I I14:A I
*CAP
1 I13:Y 199.5
2 I14:A 199.5
*RES
2 I13:Y I14:A 371.8
*END

*D_NET net_60 286.4
*CONN
*I I121:Y O
*I I122:A I
*CAP
1 I121:Y 143.2
2 I122:A 143.2
*RES
2 I121:Y I122:A 14570
*END

*D_NET net_61 368.2
*CONN
*I I123:Y O
*I I124:A I
*CAP
1 I123:Y 184.1
2 I124:A 184.1
*RES
2 I123:Y I124:A 18680
*END

*D_NET net_62 287
*CONN
*I I125:Y O
*I I126:A I
*CAP
1 I125:Y 143.5
2 I126:A 143.5
*RES
2 I125:Y I126:A 3869.5
*END

*D_NET net_63 301
*CONN
*I I127:Y O
*I I128:A I
*CAP
1 I127:Y 150.5
2 I128:A 150.5
*RES
2 I127:Y I128:A 4036.5
*END

*D_NET net_64 352.4
*CONN
*I I129:Y O
*I I130:A I
*CAP
1 I129:Y 176.2
2 I130:A 176.2
*RES
2 I129:Y I130:A 17890
*END

*D_NET net_65 221.5
*CONN
*I I131:Y O
*I I132:A I
*CAP
1 I131:Y 110.75
2 I132:A 110.75
*RES
2 I131:Y I132:A 336.3
*END

*D_NET net_66 399
*CONN
*I I133:Y O
*I I134:A I
*CAP
1 I133:Y 199.5
2 I134:A 199.5
*RES
2 I133:Y I134:A 371.8
*END

*D_NET net_67 94.2
*CONN
*I I135:Y O
*I I136:A I
*CAP
1 I135:Y 47.1
2 I136:A 47.1
*RES
2 I135:Y I136:A 9640
*END

*D_NET net_68 145.05
*CONN
*I I137:Y O
*I I138:A I
*CAP
1 I137:Y 72.525
2 I138:A 72.525
*RES
2 I137:Y I138:A 96900
*END

*D_NET net_69 280
*CONN
*I I139:Y O
*I I140:A I
*CAP
1 I139:Y 140
2 I140:A 140
*RES
2 I139:Y I140:A 28240
*END

*D_NET net_7 211.6
*CONN
*I I15:Y O
*I I16:A I
*CAP
1 I15:Y 105.8
2 I16:A 105.8
*RES
2 I15:Y I16:A 2919
*END

*D_NET net_70 145.2
*CONN
*I I141:Y O
*I I142:A I
*CAP
1 I141:Y 72.6
2 I142:A 72.6
*RES
2 I141:Y I142:A 1014
*END

*D_NET net_71 301.2
*CONN
*I I143:Y O
*I I144:A I
*CAP
1 I143:Y 150.6
2 I144:A 150.6
*RES
2 I143:Y I144:A 30340
*END

*D_NET net_72 51
*CONN
*I I145:Y O
*I I146:A I
*CAP
1 I145:Y 25.5
2 I146:A 25.5
*RES
2 I145:Y I146:A 911.5
*END

*D_NET net_73 33.6
*CONN
*I I147:Y O
*I I148:A I
*CAP
1 I147:Y 16.8
2 I148:A 16.8
*RES
2 I147:Y I148:A 1930
*END

*D_NET net_74 272.2
*CONN
*I I149:Y O
*I I150:A I
*CAP
1 I149:Y 136.1
2 I150:A 136.1
*RES
2 I149:Y I150:A 13880
*END

*D_NET net_75 70.2
*CONN
*I I151:Y O
*I I152:A I
*CAP
1 I151:Y 35.1
2 I152:A 35.1
*RES
2 I151:Y I152:A 1151.5
*END

*D_NET net_76 113.8
*CONN
*I I153:Y O
*I I154:A I
*CAP
1 I153:Y 56.9
2 I154:A 56.9
*RES
2 I153:Y I154:A 11600
*END

*D_NET net_77 137.5
*CONN
*I I155:Y O
*I I156:A I
*CAP
1 I155:Y 68.75
2 I156:A 68.75
*RES
2 I155:Y I156:A 319.5
*END

*D_NET net_78 334.8
*CONN
*I I157:Y O
*I I158:A I
*CAP
1 I157:Y 167.4
2 I158:A 167.4
*RES
2 I157:Y I158:A 17010
*END

*D_NET net_79 25.6
*CONN
*I I159:Y O
*I I160:A I
*CAP
1 I159:Y 12.8
2 I160:A 12.8
*RES
2 I159:Y I160:A 2800
*END

*D_NET net_8 393.4
*CONN
*I I17:Y O
*I I18:A I
*CAP
1 I17:Y 196.7
2 I18:A 196.7
*RES
2 I17:Y I18:A 5203.5
*END

*D_NET net_80 231.8
*CONN
*I I161:Y O
*I I162:A I
*CAP
1 I161:Y 115.9
2 I162:A 115.9
*RES
2 I161:Y I162:A 3183.5
*END

*D_NET net_81 195
*CONN
*I I163:Y O
*I I164:A I
*CAP
1 I163:Y 97.5
2 I164:A 97.5
*RES
2 I163:Y I164:A 10020
*END

*D_NET net_82 70.4
*CONN
*I I165:Y O
*I I166:A I
*CAP
1 I165:Y 35.2
2 I166:A 35.2
*RES
2 I165:Y I166:A 3770
*END

*D_NET net_83 157.6
*CONN
*I I167:Y O
*I I168:A I
*CAP
1 I167:Y 78.8
2 I168:A 78.8
*RES
2 I167:Y I168:A 8130
*END

*D_NET net_84 191.1
*CONN
*I I169:Y O
*I I170:A I
*CAP
1 I169:Y 95.55
2 I170:A 95.55
*RES
2 I169:Y I170:A 127600
*END

*D_NET net_85 299.8
*CONN
*I I171:Y O
*I I172:A I
*CAP
1 I171:Y 149.9
2 I172:A 149.9
*RES
2 I171:Y I172:A 1787
*END

*D_NET net_86 188.4
*CONN
*I I173:Y O
*I I174:A I
*CAP
1 I173:Y 94.2
2 I174:A 94.2
*RES
2 I173:Y I174:A 1230
*END

*D_NET net_87 52.6
*CONN
*I I175:Y O
*I I176:A I
*CAP
1 I175:Y 26.3
2 I176:A 26.3
*RES
2 I175:Y I176:A 553
*END

*D_NET net_88 43
*CONN
*I I177:Y O
*I I178:A I
*CAP
1 I177:Y 21.5
2 I178:A 21.5
*RES
2 I177:Y I178:A 4520
*END

*D_NET net_89 369.6
*CONN
*I I179:Y O
*I I180:A I
*CAP
1 I179:Y 184.8
2 I180:A 184.8
*RES
2 I179:Y I180:A 4894
*END

*D_NET net_9 421.5
*CONN
*I I19:Y O
*I I20:A I
*CAP
1 I19:Y 210.75
2 I20:A 210.75
*RES
2 I19:Y I20:A 375.3
*END

*D_NET net_90 144
*CONN
*I I181:Y O
*I I182:A I
*CAP
1 I181:Y 72
2 I182:A 72
*RES
2 I181:Y I182:A 2086
*END

*D_NET net_91 172.35
*CONN
*I I183:Y O
*I I184:A I
*CAP
1 I183:Y 86.175
2 I184:A 86.175
*RES
2 I183:Y I184:A 115100
*END

*D_NET net_92 142.2
*CONN
*I I185:Y O
*I I186:A I
*CAP
1 I185:Y 71.1
2 I186:A 71.1
*RES
2 I185:Y I186:A 2051.5
*END

*D_NET net_93 134.6
*CONN
*I I187:Y O
*I I188:A I
*CAP
1 I187:Y 67.3
2 I188:A 67.3
*RES
2 I187:Y I188:A 961
*END

*D_NET net_94 43.2
*CONN
*I I189:Y O
*I I190:A I
*CAP
1 I189:Y 21.6
2 I190:A 21.6
*RES
2 I189:Y I190:A 2420
*END

*D_NET net_95 162.4
*CONN
*I I191:Y O
*I I192:A I
*CAP
1 I191:Y 81.2
2 I192:A 81.2
*RES
2 I191:Y I192:A 2308
*END

*D_NET net_96 305.6
*CONN
*I I193:Y O
*I I194:A I
*CAP
1 I193:Y 152.8
2 I194:A 152.8
*RES
2 I193:Y I194:A 15530
*END

*D_NET net_97 272
*CONN
*I I195:Y O
*I I196:A I
*CAP
1 I195:Y 136
2 I196:A 136
*RES
2 I195:Y I196:A 27420
*END

*D_NET net_98 231.6
*CONN
*I I197:Y O
*I I198:A I
*CAP
1 I197:Y 115.8
2 I198:A 115.8
*RES
2 I197:Y I198:A 11830
*END

*D_NET net_99 308.2
*CONN
*I I199:Y O
*I I200:A I
*CAP
1 I199:Y 154.1
2 I200:A 154.1
*RES
2 I199:Y I200:A 4134.5
*END
