*SPEF "1.0"
*DESIGN "tau2020v1"
*PROGRAM "RandomNets"
*T_UNIT 1 NS
*C_UNIT 1 FF
*R_UNIT 1 OHM

*PORTS 


*D_NET net_0 45.6
*CONN
*I I1:ZN O
*I I2:A I
*CAP
1 I1:ZN 22.8
2 I2:A 22.8
*RES
2 I1:ZN I2:A 4800
*END

*D_NET net_1 50.2
*CONN
*I I3:Z O
*I I4:A I
*CAP
1 I3:Z 25.1
2 I4:A 25.1
*RES
2 I3:Z I4:A 541
*END

*D_NET net_10 297.5
*CONN
*I I21:ZN O
*I I22:A I
*CAP
1 I21:ZN 148.75
2 I22:A 148.75
*RES
2 I21:ZN I22:A 351.5
*END

*D_NET net_11 105.6
*CONN
*I I23:ZN O
*I I24:A I
*CAP
1 I23:ZN 52.8
2 I24:A 52.8
*RES
2 I23:ZN I24:A 5540
*END

*D_NET net_12 111.4
*CONN
*I I25:ZN O
*I I26:A I
*CAP
1 I25:ZN 55.7
2 I26:A 55.7
*RES
2 I25:ZN I26:A 11360
*END

*D_NET net_13 332.6
*CONN
*I I27:ZN O
*I I28:A I
*CAP
1 I27:ZN 166.3
2 I28:A 166.3
*RES
2 I27:ZN I28:A 4435.5
*END

*D_NET net_14 146.8
*CONN
*I I29:ZN O
*I I30:A I
*CAP
1 I29:ZN 73.4
2 I30:A 73.4
*RES
2 I29:ZN I30:A 2121
*END

*D_NET net_15 285.2
*CONN
*I I31:ZN O
*I I32:A I
*CAP
1 I31:ZN 142.6
2 I32:A 142.6
*RES
2 I31:ZN I32:A 3843
*END

*D_NET net_16 82.8
*CONN
*I I33:ZN O
*I I34:A I
*CAP
1 I33:ZN 41.4
2 I34:A 41.4
*RES
2 I33:ZN I34:A 55400
*END

*D_NET net_17 261.8
*CONN
*I I35:ZN O
*I I36:A I
*CAP
1 I35:ZN 130.9
2 I36:A 130.9
*RES
2 I35:ZN I36:A 3550.5
*END

*D_NET net_18 82.5
*CONN
*I I37:ZN O
*I I38:A I
*CAP
1 I37:ZN 41.25
2 I38:A 41.25
*RES
2 I37:ZN I38:A 307.5
*END

*D_NET net_19 252.2
*CONN
*I I39:ZN O
*I I40:A I
*CAP
1 I39:ZN 126.1
2 I40:A 126.1
*RES
2 I39:ZN I40:A 1551
*END

*D_NET net_2 373.2
*CONN
*I I5:ZN O
*I I6:A I
*CAP
1 I5:ZN 186.6
2 I6:A 186.6
*RES
2 I5:ZN I6:A 37540
*END

*D_NET net_20 640.5
*CONN
*I I41:ZN O
*I I42:A I
*CAP
1 I41:ZN 320.25
2 I42:A 320.25
*RES
2 I41:ZN I42:A 420.1
*END

*D_NET net_21 206.2
*CONN
*I I43:Z O
*I I44:A I
*CAP
1 I43:Z 103.1
2 I44:A 103.1
*RES
2 I43:Z I44:A 2859.5
*END

*D_NET net_22 19.6
*CONN
*I I45:ZN O
*I I46:A I
*CAP
1 I45:ZN 9.8
2 I46:A 9.8
*RES
2 I45:ZN I46:A 2180
*END

*D_NET net_23 231
*CONN
*I I47:Z O
*I I48:A I
*CAP
1 I47:Z 115.5
2 I48:A 115.5
*RES
2 I47:Z I48:A 154200
*END

*D_NET net_24 408.5
*CONN
*I I49:Z O
*I I50:A I
*CAP
1 I49:Z 204.25
2 I50:A 204.25
*RES
2 I49:Z I50:A 373.7
*END

*D_NET net_25 286.4
*CONN
*I I51:ZN O
*I I52:A I
*CAP
1 I51:ZN 143.2
2 I52:A 143.2
*RES
2 I51:ZN I52:A 1720
*END

*D_NET net_26 90
*CONN
*I I53:ZN O
*I I54:A I
*CAP
1 I53:ZN 45
2 I54:A 45
*RES
2 I53:ZN I54:A 1399
*END

*D_NET net_27 137.8
*CONN
*I I55:ZN O
*I I56:A I
*CAP
1 I55:ZN 68.9
2 I56:A 68.9
*RES
2 I55:ZN I56:A 7160
*END

*D_NET net_28 136
*CONN
*I I57:Z O
*I I58:A I
*CAP
1 I57:Z 68
2 I58:A 68
*RES
2 I57:Z I58:A 319.2
*END

*D_NET net_29 20.5
*CONN
*I I59:Z O
*I I60:A I
*CAP
1 I59:Z 10.25
2 I60:A 10.25
*RES
2 I59:Z I60:A 295.1
*END

*D_NET net_3 97.6
*CONN
*I I7:ZN O
*I I8:A I
*CAP
1 I7:ZN 48.8
2 I8:A 48.8
*RES
2 I7:ZN I8:A 5150
*END

*D_NET net_30 290
*CONN
*I I61:ZN O
*I I62:A I
*CAP
1 I61:ZN 145
2 I62:A 145
*RES
2 I61:ZN I62:A 349
*END

*D_NET net_31 86.2
*CONN
*I I63:Z O
*I I64:A I
*CAP
1 I63:Z 43.1
2 I64:A 43.1
*RES
2 I63:Z I64:A 719
*END

*D_NET net_32 148
*CONN
*I I65:ZN O
*I I66:A I
*CAP
1 I65:ZN 74
2 I66:A 74
*RES
2 I65:ZN I66:A 15020
*END

*D_NET net_33 251.6
*CONN
*I I67:Z O
*I I68:A I
*CAP
1 I67:Z 125.8
2 I68:A 125.8
*RES
2 I67:Z I68:A 3431
*END

*D_NET net_34 133.8
*CONN
*I I69:ZN O
*I I70:A I
*CAP
1 I69:ZN 66.9
2 I70:A 66.9
*RES
2 I69:ZN I70:A 13600
*END

*D_NET net_35 15
*CONN
*I I71:Z O
*I I72:A I
*CAP
1 I71:Z 7.5
2 I72:A 7.5
*RES
2 I71:Z I72:A 295
*END

*D_NET net_36 373.6
*CONN
*I I73:Z O
*I I74:A I
*CAP
1 I73:Z 186.8
2 I74:A 186.8
*RES
2 I73:Z I74:A 2156
*END

*D_NET net_37 870
*CONN
*I I75:ZN O
*I I76:A I
*CAP
1 I75:ZN 435
2 I76:A 435
*RES
2 I75:ZN I76:A 465
*END

*D_NET net_38 373.8
*CONN
*I I77:ZN O
*I I78:A I
*CAP
1 I77:ZN 186.9
2 I78:A 186.9
*RES
2 I77:ZN I78:A 18960
*END

*D_NET net_39 32
*CONN
*I I79:ZN O
*I I80:A I
*CAP
1 I79:ZN 16
2 I80:A 16
*RES
2 I79:ZN I80:A 448
*END

*D_NET net_4 79.5
*CONN
*I I10:A I
*I I9:Z O
*CAP
1 I9:Z 39.75
2 I10:A 39.75
*RES
2 I9:Z I10:A 53200
*END

*D_NET net_40 238.8
*CONN
*I I81:ZN O
*I I82:A I
*CAP
1 I81:ZN 119.4
2 I82:A 119.4
*RES
2 I81:ZN I82:A 24100
*END

*D_NET net_41 756
*CONN
*I I83:ZN O
*I I84:A I
*CAP
1 I83:ZN 378
2 I84:A 378
*RES
2 I83:ZN I84:A 442.2
*END

*D_NET net_42 336.8
*CONN
*I I85:ZN O
*I I86:A I
*CAP
1 I85:ZN 168.4
2 I86:A 168.4
*RES
2 I85:ZN I86:A 17110
*END

*D_NET net_43 168.6
*CONN
*I I87:ZN O
*I I88:A I
*CAP
1 I87:ZN 84.3
2 I88:A 84.3
*RES
2 I87:ZN I88:A 2381.5
*END

*D_NET net_44 723
*CONN
*I I89:Z O
*I I90:A I
*CAP
1 I89:Z 361.5
2 I90:A 361.5
*RES
2 I89:Z I90:A 436.6
*END

*D_NET net_45 125.8
*CONN
*I I91:ZN O
*I I92:A I
*CAP
1 I91:ZN 62.9
2 I92:A 62.9
*RES
2 I91:ZN I92:A 1850.5
*END

*D_NET net_46 293.2
*CONN
*I I93:Z O
*I I94:A I
*CAP
1 I93:Z 146.6
2 I94:A 146.6
*RES
2 I93:Z I94:A 1754
*END

*D_NET net_47 23.8
*CONN
*I I95:ZN O
*I I96:A I
*CAP
1 I95:ZN 11.9
2 I96:A 11.9
*RES
2 I95:ZN I96:A 407
*END

*D_NET net_48 63
*CONN
*I I97:ZN O
*I I98:A I
*CAP
1 I97:ZN 31.5
2 I98:A 31.5
*RES
2 I97:ZN I98:A 1061.5
*END

*D_NET net_49 274.6
*CONN
*I I100:A I
*I I99:ZN O
*CAP
1 I99:ZN 137.3
2 I100:A 137.3
*RES
2 I99:ZN I100:A 13990
*END

*D_NET net_5 87
*CONN
*I I11:ZN O
*I I12:A I
*CAP
1 I11:ZN 43.5
2 I12:A 43.5
*RES
2 I11:ZN I12:A 1369.5
*END

*D_NET net_50 100.8
*CONN
*I I101:ZN O
*I I102:A I
*CAP
1 I101:ZN 50.4
2 I102:A 50.4
*RES
2 I101:ZN I102:A 1538
*END

*D_NET net_51 333.6
*CONN
*I I103:ZN O
*I I104:A I
*CAP
1 I103:ZN 166.8
2 I104:A 166.8
*RES
2 I103:ZN I104:A 1956
*END

*D_NET net_52 127.2
*CONN
*I I105:ZN O
*I I106:A I
*CAP
1 I105:ZN 63.6
2 I106:A 63.6
*RES
2 I105:ZN I106:A 6620
*END

*D_NET net_53 243.8
*CONN
*I I107:ZN O
*I I108:A I
*CAP
1 I107:ZN 121.9
2 I108:A 121.9
*RES
2 I107:ZN I108:A 24620
*END

*D_NET net_54 176.8
*CONN
*I I109:ZN O
*I I110:A I
*CAP
1 I109:ZN 88.4
2 I110:A 88.4
*RES
2 I109:ZN I110:A 1172
*END

*D_NET net_55 44.2
*CONN
*I I111:ZN O
*I I112:A I
*CAP
1 I111:ZN 22.1
2 I112:A 22.1
*RES
2 I111:ZN I112:A 830.5
*END

*D_NET net_56 19.8
*CONN
*I I113:ZN O
*I I114:A I
*CAP
1 I113:ZN 9.9
2 I114:A 9.9
*RES
2 I113:ZN I114:A 1260
*END

*D_NET net_57 370.8
*CONN
*I I115:ZN O
*I I116:A I
*CAP
1 I115:ZN 185.4
2 I116:A 185.4
*RES
2 I115:ZN I116:A 18790
*END

*D_NET net_58 649
*CONN
*I I117:ZN O
*I I118:A I
*CAP
1 I117:ZN 324.5
2 I118:A 324.5
*RES
2 I117:ZN I118:A 420.8
*END

*D_NET net_59 21.6
*CONN
*I I119:Z O
*I I120:A I
*CAP
1 I119:Z 10.8
2 I120:A 10.8
*RES
2 I119:Z I120:A 544
*END

*D_NET net_6 186.6
*CONN
*I I13:ZN O
*I I14:A I
*CAP
1 I13:ZN 93.3
2 I14:A 93.3
*RES
2 I13:ZN I14:A 2614.5
*END

*D_NET net_60 322.6
*CONN
*I I121:ZN O
*I I122:A I
*CAP
1 I121:ZN 161.3
2 I122:A 161.3
*RES
2 I121:ZN I122:A 1903
*END

*D_NET net_61 33.8
*CONN
*I I123:ZN O
*I I124:A I
*CAP
1 I123:ZN 16.9
2 I124:A 16.9
*RES
2 I123:ZN I124:A 457
*END

*D_NET net_62 269.4
*CONN
*I I125:ZN O
*I I126:A I
*CAP
1 I125:ZN 134.7
2 I126:A 134.7
*RES
2 I125:ZN I126:A 27160
*END

*D_NET net_63 147.8
*CONN
*I I127:ZN O
*I I128:A I
*CAP
1 I127:ZN 73.9
2 I128:A 73.9
*RES
2 I127:ZN I128:A 2129.5
*END

*D_NET net_64 237
*CONN
*I I129:ZN O
*I I130:A I
*CAP
1 I129:ZN 118.5
2 I130:A 118.5
*RES
2 I129:ZN I130:A 3236.5
*END

*D_NET net_65 369
*CONN
*I I131:ZN O
*I I132:A I
*CAP
1 I131:ZN 184.5
2 I132:A 184.5
*RES
2 I131:ZN I132:A 4886.5
*END

*D_NET net_66 291.8
*CONN
*I I133:ZN O
*I I134:A I
*CAP
1 I133:ZN 145.9
2 I134:A 145.9
*RES
2 I133:ZN I134:A 3929.5
*END

*D_NET net_67 305.6
*CONN
*I I135:Z O
*I I136:A I
*CAP
1 I135:Z 152.8
2 I136:A 152.8
*RES
2 I135:Z I136:A 15550
*END

*D_NET net_68 209
*CONN
*I I137:ZN O
*I I138:A I
*CAP
1 I137:ZN 104.5
2 I138:A 104.5
*RES
2 I137:ZN I138:A 10700
*END

*D_NET net_69 774
*CONN
*I I139:Z O
*I I140:A I
*CAP
1 I139:Z 387
2 I140:A 387
*RES
2 I139:Z I140:A 446.8
*END

*D_NET net_7 629
*CONN
*I I15:Z O
*I I16:A I
*CAP
1 I15:Z 314.5
2 I16:A 314.5
*RES
2 I15:Z I16:A 416.8
*END

*D_NET net_70 327.4
*CONN
*I I141:ZN O
*I I142:A I
*CAP
1 I141:ZN 163.7
2 I142:A 163.7
*RES
2 I141:ZN I142:A 16630
*END

*D_NET net_71 329.4
*CONN
*I I143:Z O
*I I144:A I
*CAP
1 I143:Z 164.7
2 I144:A 164.7
*RES
2 I143:Z I144:A 16730
*END

*D_NET net_72 277
*CONN
*I I145:ZN O
*I I146:A I
*CAP
1 I145:ZN 138.5
2 I146:A 138.5
*RES
2 I145:ZN I146:A 3748.5
*END

*D_NET net_73 191.8
*CONN
*I I147:ZN O
*I I148:A I
*CAP
1 I147:ZN 95.9
2 I148:A 95.9
*RES
2 I147:ZN I148:A 2683.5
*END

*D_NET net_74 244.6
*CONN
*I I149:ZN O
*I I150:A I
*CAP
1 I149:ZN 122.3
2 I150:A 122.3
*RES
2 I149:ZN I150:A 12500
*END

*D_NET net_75 387.4
*CONN
*I I151:Z O
*I I152:A I
*CAP
1 I151:Z 193.7
2 I152:A 193.7
*RES
2 I151:Z I152:A 19620
*END

*D_NET net_76 366.8
*CONN
*I I153:ZN O
*I I154:A I
*CAP
1 I153:ZN 183.4
2 I154:A 183.4
*RES
2 I153:ZN I154:A 18590
*END

*D_NET net_77 142.5
*CONN
*I I155:Z O
*I I156:A I
*CAP
1 I155:Z 71.25
2 I156:A 71.25
*RES
2 I155:Z I156:A 320.5
*END

*D_NET net_78 337.6
*CONN
*I I157:Z O
*I I158:A I
*CAP
1 I157:Z 168.8
2 I158:A 168.8
*RES
2 I157:Z I158:A 33980
*END

*D_NET net_79 782.5
*CONN
*I I159:ZN O
*I I160:A I
*CAP
1 I159:ZN 391.25
2 I160:A 391.25
*RES
2 I159:ZN I160:A 448.5
*END

*D_NET net_8 142.2
*CONN
*I I17:Z O
*I I18:A I
*CAP
1 I17:Z 71.1
2 I18:A 71.1
*RES
2 I17:Z I18:A 1001
*END

*D_NET net_80 200
*CONN
*I I161:ZN O
*I I162:A I
*CAP
1 I161:ZN 100
2 I162:A 100
*RES
2 I161:ZN I162:A 331
*END

*D_NET net_81 301.6
*CONN
*I I163:ZN O
*I I164:A I
*CAP
1 I163:ZN 150.8
2 I164:A 150.8
*RES
2 I163:ZN I164:A 1798
*END

*D_NET net_82 303.6
*CONN
*I I165:ZN O
*I I166:A I
*CAP
1 I165:ZN 151.8
2 I166:A 151.8
*RES
2 I165:ZN I166:A 4081
*END

*D_NET net_83 15.2
*CONN
*I I167:ZN O
*I I168:A I
*CAP
1 I167:ZN 7.6
2 I168:A 7.6
*RES
2 I167:ZN I168:A 476
*END

*D_NET net_84 592.5
*CONN
*I I169:ZN O
*I I170:A I
*CAP
1 I169:ZN 296.25
2 I170:A 296.25
*RES
2 I169:ZN I170:A 410.5
*END

*D_NET net_85 203.2
*CONN
*I I171:Z O
*I I172:A I
*CAP
1 I171:Z 101.6
2 I172:A 101.6
*RES
2 I171:Z I172:A 1306
*END

*D_NET net_86 15.4
*CONN
*I I173:ZN O
*I I174:A I
*CAP
1 I173:ZN 7.7
2 I174:A 7.7
*RES
2 I173:ZN I174:A 1020
*END

*D_NET net_87 396.4
*CONN
*I I175:Z O
*I I176:A I
*CAP
1 I175:Z 198.2
2 I176:A 198.2
*RES
2 I175:Z I176:A 5237
*END

*D_NET net_88 225
*CONN
*I I177:Z O
*I I178:A I
*CAP
1 I177:Z 112.5
2 I178:A 112.5
*RES
2 I177:Z I178:A 150200
*END

*D_NET net_89 125
*CONN
*I I179:Z O
*I I180:A I
*CAP
1 I179:Z 62.5
2 I180:A 62.5
*RES
2 I179:Z I180:A 6510
*END

*D_NET net_9 156.6
*CONN
*I I19:ZN O
*I I20:A I
*CAP
1 I19:ZN 78.3
2 I20:A 78.3
*RES
2 I19:ZN I20:A 8090
*END

*D_NET net_90 153.2
*CONN
*I I181:ZN O
*I I182:A I
*CAP
1 I181:ZN 76.6
2 I182:A 76.6
*RES
2 I181:ZN I182:A 7920
*END

*D_NET net_91 253.8
*CONN
*I I183:ZN O
*I I184:A I
*CAP
1 I183:ZN 126.9
2 I184:A 126.9
*RES
2 I183:ZN I184:A 3450.5
*END

*D_NET net_92 195
*CONN
*I I185:ZN O
*I I186:A I
*CAP
1 I185:ZN 97.5
2 I186:A 97.5
*RES
2 I185:ZN I186:A 2723.5
*END

*D_NET net_93 115.4
*CONN
*I I187:Z O
*I I188:A I
*CAP
1 I187:Z 57.7
2 I188:A 57.7
*RES
2 I187:Z I188:A 6040
*END

*D_NET net_94 294.4
*CONN
*I I189:ZN O
*I I190:A I
*CAP
1 I189:ZN 147.2
2 I190:A 147.2
*RES
2 I189:ZN I190:A 1760
*END

*D_NET net_95 11.2
*CONN
*I I191:ZN O
*I I192:A I
*CAP
1 I191:ZN 5.6
2 I192:A 5.6
*RES
2 I191:ZN I192:A 418
*END

*D_NET net_96 166.6
*CONN
*I I193:Z O
*I I194:A I
*CAP
1 I193:Z 83.3
2 I194:A 83.3
*RES
2 I193:Z I194:A 16880
*END

*D_NET net_97 213.2
*CONN
*I I195:Z O
*I I196:A I
*CAP
1 I195:Z 106.6
2 I196:A 106.6
*RES
2 I195:Z I196:A 2943
*END

*D_NET net_98 117.8
*CONN
*I I197:ZN O
*I I198:A I
*CAP
1 I197:ZN 58.9
2 I198:A 58.9
*RES
2 I197:ZN I198:A 12000
*END

*D_NET net_99 245.7
*CONN
*I I199:Z O
*I I200:A I
*CAP
1 I199:Z 122.85
2 I200:A 122.85
*RES
2 I199:Z I200:A 164000
*END
