*SPEF "1.0"
*DESIGN "tau2020_asu"
*PROGRAM "RandomNets"
*T_UNIT 1 NS
*C_UNIT 1 FF
*R_UNIT 1 OHM

*PORTS 


*D_NET net_0 11.25
*CONN
*I I1:Y O
*I I2:A I
*CAP
1 I1:Y 5.625
2 I2:A 5.625
*RES
2 I1:Y I2:A 293.25
*END

*D_NET net_1 36
*CONN
*I I3:Y O
*I I4:A I
*CAP
1 I3:Y 18
2 I4:A 18
*RES
2 I3:Y I4:A 736
*END

*D_NET net_2 81.4
*CONN
*I I5:Y O
*I I6:A I
*CAP
1 I5:Y 40.7
2 I6:A 40.7
*RES
2 I5:Y I6:A 695
*END

*D_NET net_3 28.8
*CONN
*I I7:Y O
*I I8:A I
*CAP
1 I7:Y 14.4
2 I8:A 14.4
*RES
2 I7:Y I8:A 1710
*END

*D_NET net_4 170.8
*CONN
*I I10:A I
*I I9:Y O
*CAP
1 I9:Y 85.4
2 I10:A 85.4
*RES
2 I9:Y I10:A 1142
*END

*D_NET net_5 25.6
*CONN
*I I11:Y O
*I I12:A I
*CAP
1 I11:Y 12.8
2 I12:A 12.8
*RES
2 I11:Y I12:A 418
*END

*D_NET net_6 55.4
*CONN
*I I13:Y O
*I I14:A I
*CAP
1 I13:Y 27.7
2 I14:A 27.7
*RES
2 I13:Y I14:A 565
*END

*D_NET net_7 102.6
*CONN
*I I15:Y O
*I I16:A I
*CAP
1 I15:Y 51.3
2 I16:A 51.3
*RES
2 I15:Y I16:A 801
*END

*D_NET net_8 160.5
*CONN
*I I17:Y O
*I I18:A I
*CAP
1 I17:Y 80.25
2 I18:A 80.25
*RES
2 I17:Y I18:A 323.1
*END

*D_NET net_9 24.5
*CONN
*I I19:Y O
*I I20:A I
*CAP
1 I19:Y 12.25
2 I20:A 12.25
*RES
2 I19:Y I20:A 1485
*END
