*SPEF "1.0"
*DESIGN "tau2020_nangate"
*PROGRAM "RandomNets"
*T_UNIT 1 NS
*C_UNIT 1 FF
*R_UNIT 1 OHM

*PORTS 


*D_NET net_0 21.2
*CONN
*I I1:Z O
*I I2:A I
*CAP
1 I1:Z 10.6
2 I2:A 10.6
*RES
2 I1:Z I2:A 396
*END

*D_NET net_1 41.85
*CONN
*I I3:ZN O
*I I4:A I
*CAP
1 I3:ZN 20.925
2 I4:A 20.925
*RES
2 I3:ZN I4:A 2352.5
*END

*D_NET net_2 98.4
*CONN
*I I5:ZN O
*I I6:A I
*CAP
1 I5:ZN 49.2
2 I6:A 49.2
*RES
2 I5:ZN I6:A 1512
*END

*D_NET net_3 68.2
*CONN
*I I7:ZN O
*I I8:A I
*CAP
1 I7:ZN 34.1
2 I8:A 34.1
*RES
2 I7:ZN I8:A 1130.5
*END

*D_NET net_4 89.4
*CONN
*I I10:A I
*I I9:ZN O
*CAP
1 I9:ZN 44.7
2 I10:A 44.7
*RES
2 I9:ZN I10:A 59800
*END

*D_NET net_5 80.9
*CONN
*I I11:Z O
*I I12:A I
*CAP
1 I11:Z 40.45
2 I12:A 40.45
*RES
2 I11:Z I12:A 8330
*END

*D_NET net_6 31.3125
*CONN
*I I13:Z O
*I I14:A I
*CAP
1 I13:Z 15.6562
2 I14:A 15.6562
*RES
2 I13:Z I14:A 297.262
*END

*D_NET net_7 2.4
*CONN
*I I15:ZN O
*I I16:A I
*CAP
1 I15:ZN 1.2
2 I16:A 1.2
*RES
2 I15:ZN I16:A 370
*END

*D_NET net_8 276.5
*CONN
*I I17:ZN O
*I I18:A I
*CAP
1 I17:ZN 138.25
2 I18:A 138.25
*RES
2 I17:ZN I18:A 347.3
*END

*D_NET net_9 22.2
*CONN
*I I19:ZN O
*I I20:A I
*CAP
1 I19:ZN 11.1
2 I20:A 11.1
*RES
2 I19:ZN I20:A 2460
*END
