*SPEF "1.0"
*DESIGN "tau2020_testsuite0131"
*PROGRAM "RandomNets"
*T_UNIT 1 NS
*C_UNIT 1 FF
*R_UNIT 1 OHM

*PORTS 


*D_NET net_0 14.2
*CONN
*I I1:Y O
*I I2:A I
*CAP
1 I1:Y 7.1
2 I2:A 7.1
*RES
2 I1:Y I2:A 451.5
*END

*D_NET net_1 82.4
*CONN
*I I3:Y O
*I I4:A I
*CAP
1 I3:Y 41.2
2 I4:A 41.2
*RES
2 I3:Y I4:A 8480
*END

*D_NET net_2 178.4
*CONN
*I I5:Y O
*I I6:A I
*CAP
1 I5:Y 89.2
2 I6:A 89.2
*RES
2 I5:Y I6:A 2508
*END

*D_NET net_3 175.4
*CONN
*I I7:Y O
*I I8:A I
*CAP
1 I7:Y 87.7
2 I8:A 87.7
*RES
2 I7:Y I8:A 9020
*END

*D_NET net_4 151.8
*CONN
*I I10:A I
*I I9:Y O
*CAP
1 I9:Y 75.9
2 I10:A 75.9
*RES
2 I9:Y I10:A 2179.5
*END

*D_NET net_5 161.8
*CONN
*I I11:Y O
*I I12:A I
*CAP
1 I11:Y 80.9
2 I12:A 80.9
*RES
2 I11:Y I12:A 1097
*END

*D_NET net_6 13.4
*CONN
*I I13:Y O
*I I14:A I
*CAP
1 I13:Y 6.7
2 I14:A 6.7
*RES
2 I13:Y I14:A 357
*END

*D_NET net_7 13.85
*CONN
*I I15:Y O
*I I16:A I
*CAP
1 I15:Y 6.925
2 I16:A 6.925
*RES
2 I15:Y I16:A 1625
*END

*D_NET net_8 63.4
*CONN
*I I17:Y O
*I I18:A I
*CAP
1 I17:Y 31.7
2 I18:A 31.7
*RES
2 I17:Y I18:A 1074.5
*END

*D_NET net_9 63.2
*CONN
*I I19:Y O
*I I20:A I
*CAP
1 I19:Y 31.6
2 I20:A 31.6
*RES
2 I19:Y I20:A 3420
*END
