*SPEF "1.0"
*DESIGN "tau2020_asu"
*PROGRAM "RandomNets"
*T_UNIT 1 NS
*C_UNIT 1 FF
*R_UNIT 1 OHM

*PORTS 


*D_NET net_0 117.4
*CONN
*I I1:Y O
*I I2:A I
*CAP
1 I1:Y 58.7
2 I2:A 58.7
*RES
2 I1:Y I2:A 1745.5
*END

*D_NET net_1 103.8
*CONN
*I I3:Y O
*I I4:A I
*CAP
1 I3:Y 51.9
2 I4:A 51.9
*RES
2 I3:Y I4:A 10620
*END

*D_NET net_2 12.2969
*CONN
*I I5:Y O
*I I6:A I
*CAP
1 I5:Y 6.14844
2 I6:A 6.14844
*RES
2 I5:Y I6:A 293.459
*END

*D_NET net_3 16.275
*CONN
*I I7:Y O
*I I8:A I
*CAP
1 I7:Y 8.1375
2 I8:A 8.1375
*RES
2 I7:Y I8:A 481.438
*END

*D_NET net_4 155.4
*CONN
*I I10:A I
*I I9:Y O
*CAP
1 I9:Y 77.7
2 I10:A 77.7
*RES
2 I9:Y I10:A 1065
*END

*D_NET net_5 12.2
*CONN
*I I11:Y O
*I I12:A I
*CAP
1 I11:Y 6.1
2 I12:A 6.1
*RES
2 I11:Y I12:A 860
*END

*D_NET net_6 91.8
*CONN
*I I13:Y O
*I I14:A I
*CAP
1 I13:Y 45.9
2 I14:A 45.9
*RES
2 I13:Y I14:A 4860
*END

*D_NET net_7 60.8
*CONN
*I I15:Y O
*I I16:A I
*CAP
1 I15:Y 30.4
2 I16:A 30.4
*RES
2 I15:Y I16:A 6300
*END

*D_NET net_8 114.6
*CONN
*I I17:Y O
*I I18:A I
*CAP
1 I17:Y 57.3
2 I18:A 57.3
*RES
2 I17:Y I18:A 1714.5
*END

*D_NET net_9 18.5625
*CONN
*I I19:Y O
*I I20:A I
*CAP
1 I19:Y 9.28125
2 I20:A 9.28125
*RES
2 I19:Y I20:A 12575
*END
