*SPEF "1.0"
*DESIGN "tau2020v2"
*PROGRAM "RandomNets"
*T_UNIT 1 NS
*C_UNIT 1 FF
*R_UNIT 1 OHM

*PORTS 


*D_NET net_0 226.05
*CONN
*I I1:Y O
*I I2:A I
*CAP
1 I1:Y 113.025
2 I2:A 113.025
*RES
2 I1:Y I2:A 150900
*END

*D_NET net_1 27.2
*CONN
*I I3:Y O
*I I4:A I
*CAP
1 I3:Y 13.6
2 I4:A 13.6
*RES
2 I3:Y I4:A 2960
*END

*D_NET net_10 272.8
*CONN
*I I21:Y O
*I I22:A I
*CAP
1 I21:Y 136.4
2 I22:A 136.4
*RES
2 I21:Y I22:A 3684
*END

*D_NET net_11 977
*CONN
*I I23:Y O
*I I24:A I
*CAP
1 I23:Y 488.5
2 I24:A 488.5
*RES
2 I23:Y I24:A 487.4
*END

*D_NET net_12 51.4
*CONN
*I I25:Y O
*I I26:A I
*CAP
1 I25:Y 25.7
2 I26:A 25.7
*RES
2 I25:Y I26:A 2830
*END

*D_NET net_13 355.8
*CONN
*I I27:Y O
*I I28:A I
*CAP
1 I27:Y 177.9
2 I28:A 177.9
*RES
2 I27:Y I28:A 4733.5
*END

*D_NET net_14 179.6
*CONN
*I I29:Y O
*I I30:A I
*CAP
1 I29:Y 89.8
2 I30:A 89.8
*RES
2 I29:Y I30:A 1188
*END

*D_NET net_15 349.8
*CONN
*I I31:Y O
*I I32:A I
*CAP
1 I31:Y 174.9
2 I32:A 174.9
*RES
2 I31:Y I32:A 35220
*END

*D_NET net_16 34.8
*CONN
*I I33:Y O
*I I34:A I
*CAP
1 I33:Y 17.4
2 I34:A 17.4
*RES
2 I33:Y I34:A 462
*END

*D_NET net_17 117.4
*CONN
*I I35:Y O
*I I36:A I
*CAP
1 I35:Y 58.7
2 I36:A 58.7
*RES
2 I35:Y I36:A 1745.5
*END

*D_NET net_18 240.5
*CONN
*I I37:Y O
*I I38:A I
*CAP
1 I37:Y 120.25
2 I38:A 120.25
*RES
2 I37:Y I38:A 340.1
*END

*D_NET net_19 347.4
*CONN
*I I39:Y O
*I I40:A I
*CAP
1 I39:Y 173.7
2 I40:A 173.7
*RES
2 I39:Y I40:A 4624.5
*END

*D_NET net_2 765.5
*CONN
*I I5:Y O
*I I6:A I
*CAP
1 I5:Y 382.75
2 I6:A 382.75
*RES
2 I5:Y I6:A 444.1
*END

*D_NET net_20 151.6
*CONN
*I I41:Y O
*I I42:A I
*CAP
1 I41:Y 75.8
2 I42:A 75.8
*RES
2 I41:Y I42:A 15380
*END

*D_NET net_21 471.5
*CONN
*I I43:Y O
*I I44:A I
*CAP
1 I43:Y 235.75
2 I44:A 235.75
*RES
2 I43:Y I44:A 386.3
*END

*D_NET net_22 197
*CONN
*I I45:Y O
*I I46:A I
*CAP
1 I45:Y 98.5
2 I46:A 98.5
*RES
2 I45:Y I46:A 10110
*END

*D_NET net_23 189
*CONN
*I I47:Y O
*I I48:A I
*CAP
1 I47:Y 94.5
2 I48:A 94.5
*RES
2 I47:Y I48:A 9700
*END

*D_NET net_24 191
*CONN
*I I49:Y O
*I I50:A I
*CAP
1 I49:Y 95.5
2 I50:A 95.5
*RES
2 I49:Y I50:A 9820
*END

*D_NET net_25 146
*CONN
*I I51:Y O
*I I52:A I
*CAP
1 I51:Y 73
2 I52:A 73
*RES
2 I51:Y I52:A 7550
*END

*D_NET net_26 322.8
*CONN
*I I53:Y O
*I I54:A I
*CAP
1 I53:Y 161.4
2 I54:A 161.4
*RES
2 I53:Y I54:A 32500
*END

*D_NET net_27 276.3
*CONN
*I I55:Y O
*I I56:A I
*CAP
1 I55:Y 138.15
2 I56:A 138.15
*RES
2 I55:Y I56:A 184400
*END

*D_NET net_28 317.4
*CONN
*I I57:Y O
*I I58:A I
*CAP
1 I57:Y 158.7
2 I58:A 158.7
*RES
2 I57:Y I58:A 16130
*END

*D_NET net_29 84.8
*CONN
*I I59:Y O
*I I60:A I
*CAP
1 I59:Y 42.4
2 I60:A 42.4
*RES
2 I59:Y I60:A 1342
*END

*D_NET net_3 97.5
*CONN
*I I7:Y O
*I I8:A I
*CAP
1 I7:Y 48.75
2 I8:A 48.75
*RES
2 I7:Y I8:A 311.5
*END

*D_NET net_30 428
*CONN
*I I61:Y O
*I I62:A I
*CAP
1 I61:Y 214
2 I62:A 214
*RES
2 I61:Y I62:A 376.6
*END

*D_NET net_31 370.8
*CONN
*I I63:Y O
*I I64:A I
*CAP
1 I63:Y 185.4
2 I64:A 185.4
*RES
2 I63:Y I64:A 4909
*END

*D_NET net_32 287.8
*CONN
*I I65:Y O
*I I66:A I
*CAP
1 I65:Y 143.9
2 I66:A 143.9
*RES
2 I65:Y I66:A 29020
*END

*D_NET net_33 911
*CONN
*I I67:Y O
*I I68:A I
*CAP
1 I67:Y 455.5
2 I68:A 455.5
*RES
2 I67:Y I68:A 473.2
*END

*D_NET net_34 385.4
*CONN
*I I69:Y O
*I I70:A I
*CAP
1 I69:Y 192.7
2 I70:A 192.7
*RES
2 I69:Y I70:A 19540
*END

*D_NET net_35 171.2
*CONN
*I I71:Y O
*I I72:A I
*CAP
1 I71:Y 85.6
2 I72:A 85.6
*RES
2 I71:Y I72:A 8820
*END

*D_NET net_36 899
*CONN
*I I73:Y O
*I I74:A I
*CAP
1 I73:Y 449.5
2 I74:A 449.5
*RES
2 I73:Y I74:A 470.8
*END

*D_NET net_37 244.8
*CONN
*I I75:Y O
*I I76:A I
*CAP
1 I75:Y 122.4
2 I76:A 122.4
*RES
2 I75:Y I76:A 1514
*END

*D_NET net_38 93.6
*CONN
*I I77:Y O
*I I78:A I
*CAP
1 I77:Y 46.8
2 I78:A 46.8
*RES
2 I77:Y I78:A 9600
*END

*D_NET net_39 325.2
*CONN
*I I79:Y O
*I I80:A I
*CAP
1 I79:Y 162.6
2 I80:A 162.6
*RES
2 I79:Y I80:A 1914
*END

*D_NET net_4 68.2
*CONN
*I I10:A I
*I I9:Y O
*CAP
1 I9:Y 34.1
2 I10:A 34.1
*RES
2 I9:Y I10:A 3680
*END

*D_NET net_40 14.4
*CONN
*I I81:Y O
*I I82:A I
*CAP
1 I81:Y 7.2
2 I82:A 7.2
*RES
2 I81:Y I82:A 1660
*END

*D_NET net_41 108.8
*CONN
*I I83:Y O
*I I84:A I
*CAP
1 I83:Y 54.4
2 I84:A 54.4
*RES
2 I83:Y I84:A 5710
*END

*D_NET net_42 362.8
*CONN
*I I85:Y O
*I I86:A I
*CAP
1 I85:Y 181.4
2 I86:A 181.4
*RES
2 I85:Y I86:A 4817
*END

*D_NET net_43 236.85
*CONN
*I I87:Y O
*I I88:A I
*CAP
1 I87:Y 118.425
2 I88:A 118.425
*RES
2 I87:Y I88:A 158100
*END

*D_NET net_44 139
*CONN
*I I89:Y O
*I I90:A I
*CAP
1 I89:Y 69.5
2 I90:A 69.5
*RES
2 I89:Y I90:A 7220
*END

*D_NET net_45 353.2
*CONN
*I I91:Y O
*I I92:A I
*CAP
1 I91:Y 176.6
2 I92:A 176.6
*RES
2 I91:Y I92:A 4701
*END

*D_NET net_46 130.8
*CONN
*I I93:Y O
*I I94:A I
*CAP
1 I93:Y 65.4
2 I94:A 65.4
*RES
2 I93:Y I94:A 6800
*END

*D_NET net_47 229.2
*CONN
*I I95:Y O
*I I96:A I
*CAP
1 I95:Y 114.6
2 I96:A 114.6
*RES
2 I95:Y I96:A 11720
*END

*D_NET net_48 4.8
*CONN
*I I97:Y O
*I I98:A I
*CAP
1 I97:Y 2.4
2 I98:A 2.4
*RES
2 I97:Y I98:A 346
*END

*D_NET net_49 941
*CONN
*I I100:A I
*I I99:Y O
*CAP
1 I99:Y 470.5
2 I100:A 470.5
*RES
2 I99:Y I100:A 479.2
*END

*D_NET net_5 8
*CONN
*I I11:Y O
*I I12:A I
*CAP
1 I11:Y 4
2 I12:A 4
*RES
2 I11:Y I12:A 1040
*END

*D_NET net_50 158.2
*CONN
*I I101:Y O
*I I102:A I
*CAP
1 I101:Y 79.1
2 I102:A 79.1
*RES
2 I101:Y I102:A 16060
*END

*D_NET net_51 295.8
*CONN
*I I103:Y O
*I I104:A I
*CAP
1 I103:Y 147.9
2 I104:A 147.9
*RES
2 I103:Y I104:A 29820
*END

*D_NET net_52 214.65
*CONN
*I I105:Y O
*I I106:A I
*CAP
1 I105:Y 107.325
2 I106:A 107.325
*RES
2 I105:Y I106:A 143300
*END

*D_NET net_53 109.2
*CONN
*I I107:Y O
*I I108:A I
*CAP
1 I107:Y 54.6
2 I108:A 54.6
*RES
2 I107:Y I108:A 11160
*END

*D_NET net_54 327.6
*CONN
*I I109:Y O
*I I110:A I
*CAP
1 I109:Y 163.8
2 I110:A 163.8
*RES
2 I109:Y I110:A 16650
*END

*D_NET net_55 189
*CONN
*I I111:Y O
*I I112:A I
*CAP
1 I111:Y 94.5
2 I112:A 94.5
*RES
2 I111:Y I112:A 19140
*END

*D_NET net_56 358
*CONN
*I I113:Y O
*I I114:A I
*CAP
1 I113:Y 179
2 I114:A 179
*RES
2 I113:Y I114:A 2078
*END

*D_NET net_57 81.6
*CONN
*I I115:Y O
*I I116:A I
*CAP
1 I115:Y 40.8
2 I116:A 40.8
*RES
2 I115:Y I116:A 698
*END

*D_NET net_58 259.8
*CONN
*I I117:Y O
*I I118:A I
*CAP
1 I117:Y 129.9
2 I118:A 129.9
*RES
2 I117:Y I118:A 1589
*END

*D_NET net_59 158.8
*CONN
*I I119:Y O
*I I120:A I
*CAP
1 I119:Y 79.4
2 I120:A 79.4
*RES
2 I119:Y I120:A 1082
*END

*D_NET net_6 100.8
*CONN
*I I13:Y O
*I I14:A I
*CAP
1 I13:Y 50.4
2 I14:A 50.4
*RES
2 I13:Y I14:A 1538
*END

*D_NET net_60 264
*CONN
*I I121:Y O
*I I122:A I
*CAP
1 I121:Y 132
2 I122:A 132
*RES
2 I121:Y I122:A 1610
*END

*D_NET net_61 305.8
*CONN
*I I123:Y O
*I I124:A I
*CAP
1 I123:Y 152.9
2 I124:A 152.9
*RES
2 I123:Y I124:A 4100.5
*END

*D_NET net_62 217.6
*CONN
*I I125:Y O
*I I126:A I
*CAP
1 I125:Y 108.8
2 I126:A 108.8
*RES
2 I125:Y I126:A 21980
*END

*D_NET net_63 286
*CONN
*I I127:Y O
*I I128:A I
*CAP
1 I127:Y 143
2 I128:A 143
*RES
2 I127:Y I128:A 14570
*END

*D_NET net_64 181.6
*CONN
*I I129:Y O
*I I130:A I
*CAP
1 I129:Y 90.8
2 I130:A 90.8
*RES
2 I129:Y I130:A 9330
*END

*D_NET net_65 706.5
*CONN
*I I131:Y O
*I I132:A I
*CAP
1 I131:Y 353.25
2 I132:A 353.25
*RES
2 I131:Y I132:A 433.3
*END

*D_NET net_66 317.4
*CONN
*I I133:Y O
*I I134:A I
*CAP
1 I133:Y 158.7
2 I134:A 158.7
*RES
2 I133:Y I134:A 16120
*END

*D_NET net_67 67.5
*CONN
*I I135:Y O
*I I136:A I
*CAP
1 I135:Y 33.75
2 I136:A 33.75
*RES
2 I135:Y I136:A 45200
*END

*D_NET net_68 140.8
*CONN
*I I137:Y O
*I I138:A I
*CAP
1 I137:Y 70.4
2 I138:A 70.4
*RES
2 I137:Y I138:A 14300
*END

*D_NET net_69 251.6
*CONN
*I I139:Y O
*I I140:A I
*CAP
1 I139:Y 125.8
2 I140:A 125.8
*RES
2 I139:Y I140:A 3431
*END

*D_NET net_7 209.4
*CONN
*I I15:Y O
*I I16:A I
*CAP
1 I15:Y 104.7
2 I16:A 104.7
*RES
2 I15:Y I16:A 10730
*END

*D_NET net_70 189.2
*CONN
*I I141:Y O
*I I142:A I
*CAP
1 I141:Y 94.6
2 I142:A 94.6
*RES
2 I141:Y I142:A 19140
*END

*D_NET net_71 361.8
*CONN
*I I143:Y O
*I I144:A I
*CAP
1 I143:Y 180.9
2 I144:A 180.9
*RES
2 I143:Y I144:A 4808.5
*END

*D_NET net_72 209.6
*CONN
*I I145:Y O
*I I146:A I
*CAP
1 I145:Y 104.8
2 I146:A 104.8
*RES
2 I145:Y I146:A 2902
*END

*D_NET net_73 74.4
*CONN
*I I147:Y O
*I I148:A I
*CAP
1 I147:Y 37.2
2 I148:A 37.2
*RES
2 I147:Y I148:A 3980
*END

*D_NET net_74 375.8
*CONN
*I I149:Y O
*I I150:A I
*CAP
1 I149:Y 187.9
2 I150:A 187.9
*RES
2 I149:Y I150:A 19060
*END

*D_NET net_75 366.8
*CONN
*I I151:Y O
*I I152:A I
*CAP
1 I151:Y 183.4
2 I152:A 183.4
*RES
2 I151:Y I152:A 18590
*END

*D_NET net_76 4.2
*CONN
*I I153:Y O
*I I154:A I
*CAP
1 I153:Y 2.1
2 I154:A 2.1
*RES
2 I153:Y I154:A 334.5
*END

*D_NET net_77 256.8
*CONN
*I I155:Y O
*I I156:A I
*CAP
1 I155:Y 128.4
2 I156:A 128.4
*RES
2 I155:Y I156:A 13090
*END

*D_NET net_78 231.4
*CONN
*I I157:Y O
*I I158:A I
*CAP
1 I157:Y 115.7
2 I158:A 115.7
*RES
2 I157:Y I158:A 23360
*END

*D_NET net_79 391.6
*CONN
*I I159:Y O
*I I160:A I
*CAP
1 I159:Y 195.8
2 I160:A 195.8
*RES
2 I159:Y I160:A 19840
*END

*D_NET net_8 325.2
*CONN
*I I17:Y O
*I I18:A I
*CAP
1 I17:Y 162.6
2 I18:A 162.6
*RES
2 I17:Y I18:A 16510
*END

*D_NET net_80 17.2
*CONN
*I I161:Y O
*I I162:A I
*CAP
1 I161:Y 8.6
2 I162:A 8.6
*RES
2 I161:Y I162:A 1130
*END

*D_NET net_81 166.95
*CONN
*I I163:Y O
*I I164:A I
*CAP
1 I163:Y 83.475
2 I164:A 83.475
*RES
2 I163:Y I164:A 111500
*END

*D_NET net_82 40.8
*CONN
*I I165:Y O
*I I166:A I
*CAP
1 I165:Y 20.4
2 I166:A 20.4
*RES
2 I165:Y I166:A 492
*END

*D_NET net_83 130.8
*CONN
*I I167:Y O
*I I168:A I
*CAP
1 I167:Y 65.4
2 I168:A 65.4
*RES
2 I167:Y I168:A 1909
*END

*D_NET net_84 381.8
*CONN
*I I169:Y O
*I I170:A I
*CAP
1 I169:Y 190.9
2 I170:A 190.9
*RES
2 I169:Y I170:A 19350
*END

*D_NET net_85 133.8
*CONN
*I I171:Y O
*I I172:A I
*CAP
1 I171:Y 66.9
2 I172:A 66.9
*RES
2 I171:Y I172:A 13600
*END

*D_NET net_86 24.5
*CONN
*I I173:Y O
*I I174:A I
*CAP
1 I173:Y 12.25
2 I174:A 12.25
*RES
2 I173:Y I174:A 296.9
*END

*D_NET net_87 240.45
*CONN
*I I175:Y O
*I I176:A I
*CAP
1 I175:Y 120.225
2 I176:A 120.225
*RES
2 I175:Y I176:A 160500
*END

*D_NET net_88 127.6
*CONN
*I I177:Y O
*I I178:A I
*CAP
1 I177:Y 63.8
2 I178:A 63.8
*RES
2 I177:Y I178:A 928
*END

*D_NET net_89 43.4
*CONN
*I I179:Y O
*I I180:A I
*CAP
1 I179:Y 21.7
2 I180:A 21.7
*RES
2 I179:Y I180:A 816.5
*END

*D_NET net_9 52
*CONN
*I I19:Y O
*I I20:A I
*CAP
1 I19:Y 26
2 I20:A 26
*RES
2 I19:Y I20:A 5440
*END

*D_NET net_90 202.8
*CONN
*I I181:Y O
*I I182:A I
*CAP
1 I181:Y 101.4
2 I182:A 101.4
*RES
2 I181:Y I182:A 135400
*END

*D_NET net_91 82
*CONN
*I I183:Y O
*I I184:A I
*CAP
1 I183:Y 41
2 I184:A 41
*RES
2 I183:Y I184:A 4350
*END

*D_NET net_92 572.5
*CONN
*I I185:Y O
*I I186:A I
*CAP
1 I185:Y 286.25
2 I186:A 286.25
*RES
2 I185:Y I186:A 405.5
*END

*D_NET net_93 34
*CONN
*I I187:Y O
*I I188:A I
*CAP
1 I187:Y 17
2 I188:A 17
*RES
2 I187:Y I188:A 1970
*END

*D_NET net_94 17.2
*CONN
*I I189:Y O
*I I190:A I
*CAP
1 I189:Y 8.6
2 I190:A 8.6
*RES
2 I189:Y I190:A 501
*END

*D_NET net_95 90.6
*CONN
*I I191:Y O
*I I192:A I
*CAP
1 I191:Y 45.3
2 I192:A 45.3
*RES
2 I191:Y I192:A 60600
*END

*D_NET net_96 151.2
*CONN
*I I193:Y O
*I I194:A I
*CAP
1 I193:Y 75.6
2 I194:A 75.6
*RES
2 I193:Y I194:A 7820
*END

*D_NET net_97 81.2
*CONN
*I I195:Y O
*I I196:A I
*CAP
1 I195:Y 40.6
2 I196:A 40.6
*RES
2 I195:Y I196:A 4330
*END

*D_NET net_98 130.8
*CONN
*I I197:Y O
*I I198:A I
*CAP
1 I197:Y 65.4
2 I198:A 65.4
*RES
2 I197:Y I198:A 13320
*END

*D_NET net_99 490.5
*CONN
*I I199:Y O
*I I200:A I
*CAP
1 I199:Y 245.25
2 I200:A 245.25
*RES
2 I199:Y I200:A 389.1
*END
