*SPEF "1.0"
*DESIGN "tau2020v1"
*PROGRAM "RandomNets"
*T_UNIT 1 NS
*C_UNIT 1 FF
*R_UNIT 1 OHM

*PORTS 


*D_NET net_0 309
*CONN
*I I1:Z O
*I I2:SN I
*CAP
1 I1:Z 154.5
2 I2:SN 154.5
*RES
2 I1:Z I2:SN 4144.5
*END

*D_NET net_1 100.8
*CONN
*I I3:Q O
*I I4:A2 I
*CAP
1 I3:Q 50.4
2 I4:A2 50.4
*RES
2 I3:Q I4:A2 1546
*END

*D_NET net_10 835
*CONN
*I I21:Q O
*I I22:A2 I
*CAP
1 I21:Q 417.5
2 I22:A2 417.5
*RES
2 I21:Q I22:A2 459
*END

*D_NET net_11 21.2
*CONN
*I I23:ZN O
*I I24:A I
*CAP
1 I23:ZN 10.6
2 I24:A 10.6
*RES
2 I23:ZN I24:A 394
*END

*D_NET net_12 441.5
*CONN
*I I25:Q O
*I I26:SN I
*CAP
1 I25:Q 220.75
2 I26:SN 220.75
*RES
2 I25:Q I26:SN 379.3
*END

*D_NET net_13 300.4
*CONN
*I I27:GCK O
*I I28:SN I
*CAP
1 I27:GCK 150.2
2 I28:SN 150.2
*RES
2 I27:GCK I28:SN 4033
*END

*D_NET net_14 199
*CONN
*I I29:ZN O
*I I30:A I
*CAP
1 I29:ZN 99.5
2 I30:A 99.5
*RES
2 I29:ZN I30:A 330.8
*END

*D_NET net_15 327.2
*CONN
*I I31:ZN O
*I I32:E I
*CAP
1 I31:ZN 163.6
2 I32:E 163.6
*RES
2 I31:ZN I32:E 4364
*END

*D_NET net_16 779
*CONN
*I I33:Q O
*I I34:EN I
*CAP
1 I33:Q 389.5
2 I34:EN 389.5
*RES
2 I33:Q I34:EN 446.8
*END

*D_NET net_17 503.5
*CONN
*I I35:ZN O
*I I36:A3 I
*CAP
1 I35:ZN 251.75
2 I36:A3 251.75
*RES
2 I35:ZN I36:A3 391.7
*END

*D_NET net_18 364.4
*CONN
*I I37:ZN O
*I I38:A2 I
*CAP
1 I37:ZN 182.2
2 I38:A2 182.2
*RES
2 I37:ZN I38:A2 36660
*END

*D_NET net_19 147.8
*CONN
*I I39:Z O
*I I40:A1 I
*CAP
1 I39:Z 73.9
2 I40:A1 73.9
*RES
2 I39:Z I40:A1 7660
*END

*D_NET net_2 342
*CONN
*I I5:ZN O
*I I6:C2 I
*CAP
1 I5:ZN 171
2 I6:C2 171
*RES
2 I5:ZN I6:C2 4553
*END

*D_NET net_20 201.4
*CONN
*I I41:Q O
*I I42:B2 I
*CAP
1 I41:Q 100.7
2 I42:B2 100.7
*RES
2 I41:Q I42:B2 2799.5
*END

*D_NET net_21 152.2
*CONN
*I I43:Z O
*I I44:A2 I
*CAP
1 I43:Z 76.1
2 I44:A2 76.1
*RES
2 I43:Z I44:A2 7860
*END

*D_NET net_22 185.85
*CONN
*I I45:ZN O
*I I46:RN I
*CAP
1 I45:ZN 92.925
2 I46:RN 92.925
*RES
2 I45:ZN I46:RN 124100
*END

*D_NET net_23 682
*CONN
*I I47:ZN O
*I I48:A3 I
*CAP
1 I47:ZN 341
2 I48:A3 341
*RES
2 I47:ZN I48:A3 427.4
*END

*D_NET net_24 693
*CONN
*I I49:Q O
*I I50:A2 I
*CAP
1 I49:Q 346.5
2 I50:A2 346.5
*RES
2 I49:Q I50:A2 430.6
*END

*D_NET net_25 177.2
*CONN
*I I51:ZN O
*I I52:A2 I
*CAP
1 I51:ZN 88.6
2 I52:A2 88.6
*RES
2 I51:ZN I52:A2 9130
*END

*D_NET net_26 325.2
*CONN
*I I53:ZN O
*I I54:A I
*CAP
1 I53:ZN 162.6
2 I54:A 162.6
*RES
2 I53:ZN I54:A 32760
*END

*D_NET net_27 259.2
*CONN
*I I55:GCK O
*I I56:A1 I
*CAP
1 I55:GCK 129.6
2 I56:A1 129.6
*RES
2 I55:GCK I56:A1 3522
*END

*D_NET net_28 279.6
*CONN
*I I57:ZN O
*I I58:A2 I
*CAP
1 I57:ZN 139.8
2 I58:A2 139.8
*RES
2 I57:ZN I58:A2 3773
*END

*D_NET net_29 361.8
*CONN
*I I59:Q O
*I I60:G I
*CAP
1 I59:Q 180.9
2 I60:G 180.9
*RES
2 I59:Q I60:G 2099
*END

*D_NET net_3 267.2
*CONN
*I I7:Q O
*I I8:A3 I
*CAP
1 I7:Q 133.6
2 I8:A3 133.6
*RES
2 I7:Q I8:A3 1626
*END

*D_NET net_30 155.4
*CONN
*I I61:ZN O
*I I62:B2 I
*CAP
1 I61:ZN 77.7
2 I62:B2 77.7
*RES
2 I61:ZN I62:B2 1067
*END

*D_NET net_31 174.6
*CONN
*I I63:ZN O
*I I64:A2 I
*CAP
1 I63:ZN 87.3
2 I64:A2 87.3
*RES
2 I63:ZN I64:A2 2464.5
*END

*D_NET net_32 3.2
*CONN
*I I65:ZN O
*I I66:A2 I
*CAP
1 I65:ZN 1.6
2 I66:A2 1.6
*RES
2 I65:ZN I66:A2 540
*END

*D_NET net_33 192.8
*CONN
*I I67:ZN O
*I I68:A I
*CAP
1 I67:ZN 96.4
2 I68:A 96.4
*RES
2 I67:ZN I68:A 19520
*END

*D_NET net_34 245.85
*CONN
*I I69:Q O
*I I70:CK I
*CAP
1 I69:Q 122.925
2 I70:CK 122.925
*RES
2 I69:Q I70:CK 164100
*END

*D_NET net_35 106.4
*CONN
*I I71:ZN O
*I I72:B2 I
*CAP
1 I71:ZN 53.2
2 I72:B2 53.2
*RES
2 I71:ZN I72:B2 10880
*END

*D_NET net_36 244.8
*CONN
*I I73:ZN O
*I I74:C2 I
*CAP
1 I73:ZN 122.4
2 I74:C2 122.4
*RES
2 I73:ZN I74:C2 1512
*END

*D_NET net_37 128.5
*CONN
*I I75:ZN O
*I I76:A1 I
*CAP
1 I75:ZN 64.25
2 I76:A1 64.25
*RES
2 I75:ZN I76:A1 316.7
*END

*D_NET net_38 395.4
*CONN
*I I77:ZN O
*I I78:A I
*CAP
1 I77:ZN 197.7
2 I78:A 197.7
*RES
2 I77:ZN I78:A 39780
*END

*D_NET net_39 213.2
*CONN
*I I79:Q O
*I I80:A I
*CAP
1 I79:Q 106.6
2 I80:A 106.6
*RES
2 I79:Q I80:A 2947
*END

*D_NET net_4 196
*CONN
*I I10:CK I
*I I9:ZN O
*CAP
1 I9:ZN 98
2 I10:CK 98
*RES
2 I9:ZN I10:CK 19820
*END

*D_NET net_40 89.6
*CONN
*I I81:Q O
*I I82:B2 I
*CAP
1 I81:Q 44.8
2 I82:B2 44.8
*RES
2 I81:Q I82:B2 9180
*END

*D_NET net_41 126.2
*CONN
*I I83:ZN O
*I I84:A I
*CAP
1 I83:ZN 63.1
2 I84:A 63.1
*RES
2 I83:ZN I84:A 6570
*END

*D_NET net_42 379.8
*CONN
*I I85:Q O
*I I86:A I
*CAP
1 I85:Q 189.9
2 I86:A 189.9
*RES
2 I85:Q I86:A 38200
*END

*D_NET net_43 271.6
*CONN
*I I87:Z O
*I I88:C1 I
*CAP
1 I87:Z 135.8
2 I88:C1 135.8
*RES
2 I87:Z I88:C1 1648
*END

*D_NET net_44 118.4
*CONN
*I I89:Z O
*I I90:B3 I
*CAP
1 I89:Z 59.2
2 I90:B3 59.2
*RES
2 I89:Z I90:B3 12080
*END

*D_NET net_45 118
*CONN
*I I91:ZN O
*I I92:A I
*CAP
1 I91:ZN 59
2 I92:A 59
*RES
2 I91:ZN I92:A 880
*END

*D_NET net_46 192.2
*CONN
*I I93:ZN O
*I I94:C1 I
*CAP
1 I93:ZN 96.1
2 I94:C1 96.1
*RES
2 I93:ZN I94:C1 19440
*END

*D_NET net_47 221.6
*CONN
*I I95:ZN O
*I I96:A I
*CAP
1 I95:ZN 110.8
2 I96:A 110.8
*RES
2 I95:ZN I96:A 11340
*END

*D_NET net_48 23
*CONN
*I I97:Q O
*I I98:A2 I
*CAP
1 I97:Q 11.5
2 I98:A2 11.5
*RES
2 I97:Q I98:A2 2520
*END

*D_NET net_49 346
*CONN
*I I100:A I
*I I99:GCK O
*CAP
1 I99:GCK 173
2 I100:A 173
*RES
2 I99:GCK I100:A 17550
*END

*D_NET net_5 267.4
*CONN
*I I11:Z O
*I I12:E I
*CAP
1 I11:Z 133.7
2 I12:E 133.7
*RES
2 I11:Z I12:E 3628.5
*END

*D_NET net_50 193.6
*CONN
*I I101:Q O
*I I102:EN I
*CAP
1 I101:Q 96.8
2 I102:EN 96.8
*RES
2 I101:Q I102:EN 2706
*END

*D_NET net_51 57.9
*CONN
*I I103:ZN O
*I I104:CK I
*CAP
1 I103:ZN 28.95
2 I104:CK 28.95
*RES
2 I103:ZN I104:CK 38800
*END

*D_NET net_52 194.8
*CONN
*I I105:ZN O
*I I106:CK I
*CAP
1 I105:ZN 97.4
2 I106:CK 97.4
*RES
2 I105:ZN I106:CK 9990
*END

*D_NET net_53 40.8
*CONN
*I I107:CO O
*I I108:CK I
*CAP
1 I107:CO 20.4
2 I108:CK 20.4
*RES
2 I107:CO I108:CK 792
*END

*D_NET net_54 142.65
*CONN
*I I109:Q O
*I I110:B1 I
*CAP
1 I109:Q 71.325
2 I110:B1 71.325
*RES
2 I109:Q I110:B1 95300
*END

*D_NET net_55 108.6
*CONN
*I I111:ZN O
*I I112:A2 I
*CAP
1 I111:ZN 54.3
2 I112:A2 54.3
*RES
2 I111:ZN I112:A2 1635.5
*END

*D_NET net_56 8.2
*CONN
*I I113:Z O
*I I114:C1 I
*CAP
1 I113:Z 4.1
2 I114:C1 4.1
*RES
2 I113:Z I114:C1 680
*END

*D_NET net_57 60
*CONN
*I I115:Q O
*I I116:A I
*CAP
1 I115:Q 30
2 I116:A 30
*RES
2 I115:Q I116:A 6240
*END

*D_NET net_58 154.4
*CONN
*I I117:ZN O
*I I118:B1 I
*CAP
1 I117:ZN 77.2
2 I118:B1 77.2
*RES
2 I117:ZN I118:B1 7980
*END

*D_NET net_59 310.4
*CONN
*I I119:Z O
*I I120:C1 I
*CAP
1 I119:Z 155.2
2 I120:C1 155.2
*RES
2 I119:Z I120:C1 1842
*END

*D_NET net_6 200.4
*CONN
*I I13:ZN O
*I I14:A I
*CAP
1 I13:ZN 100.2
2 I14:A 100.2
*RES
2 I13:ZN I14:A 10290
*END

*D_NET net_60 82.8
*CONN
*I I121:ZN O
*I I122:C2 I
*CAP
1 I121:ZN 41.4
2 I122:C2 41.4
*RES
2 I121:ZN I122:C2 4400
*END

*D_NET net_61 1.8
*CONN
*I I123:Q O
*I I124:A3 I
*CAP
1 I123:Q 0.9
2 I124:A3 0.9
*RES
2 I123:Q I124:A3 350
*END

*D_NET net_62 333.5
*CONN
*I I125:ZN O
*I I126:D I
*CAP
1 I125:ZN 166.75
2 I126:D 166.75
*RES
2 I125:ZN I126:D 357.7
*END

*D_NET net_63 280.8
*CONN
*I I127:ZN O
*I I128:D I
*CAP
1 I127:ZN 140.4
2 I128:D 140.4
*RES
2 I127:ZN I128:D 3792
*END

*D_NET net_64 225.6
*CONN
*I I129:GCK O
*I I130:C2 I
*CAP
1 I129:GCK 112.8
2 I130:C2 112.8
*RES
2 I129:GCK I130:C2 22780
*END

*D_NET net_65 269.8
*CONN
*I I131:ZN O
*I I132:B I
*CAP
1 I131:ZN 134.9
2 I132:B 134.9
*RES
2 I131:ZN I132:B 1637
*END

*D_NET net_66 382.4
*CONN
*I I133:ZN O
*I I134:A3 I
*CAP
1 I133:ZN 191.2
2 I134:A3 191.2
*RES
2 I133:ZN I134:A3 5066
*END

*D_NET net_67 233.4
*CONN
*I I135:ZN O
*I I136:B I
*CAP
1 I135:ZN 116.7
2 I136:B 116.7
*RES
2 I135:ZN I136:B 1455
*END

*D_NET net_68 316.2
*CONN
*I I137:CO O
*I I138:CK I
*CAP
1 I137:CO 158.1
2 I138:CK 158.1
*RES
2 I137:CO I138:CK 4230.5
*END

*D_NET net_69 178.4
*CONN
*I I139:ZN O
*I I140:B2 I
*CAP
1 I139:ZN 89.2
2 I140:B2 89.2
*RES
2 I139:ZN I140:B2 2516
*END

*D_NET net_7 306.2
*CONN
*I I15:GCK O
*I I16:CK I
*CAP
1 I15:GCK 153.1
2 I16:CK 153.1
*RES
2 I15:GCK I16:CK 4105.5
*END

*D_NET net_70 48.2
*CONN
*I I141:ZN O
*I I142:A I
*CAP
1 I141:ZN 24.1
2 I142:A 24.1
*RES
2 I141:ZN I142:A 2670
*END

*D_NET net_71 319
*CONN
*I I143:Z O
*I I144:A3 I
*CAP
1 I143:Z 159.5
2 I144:A3 159.5
*RES
2 I143:Z I144:A3 4265.5
*END

*D_NET net_72 303.4
*CONN
*I I145:ZN O
*I I146:A1 I
*CAP
1 I145:ZN 151.7
2 I146:A1 151.7
*RES
2 I145:ZN I146:A1 4074.5
*END

*D_NET net_73 54.5
*CONN
*I I147:ZN O
*I I148:CK I
*CAP
1 I147:ZN 27.25
2 I148:CK 27.25
*RES
2 I147:ZN I148:CK 301.9
*END

*D_NET net_74 394.8
*CONN
*I I149:ZN O
*I I150:A I
*CAP
1 I149:ZN 197.4
2 I150:A 197.4
*RES
2 I149:ZN I150:A 20010
*END

*D_NET net_75 307.4
*CONN
*I I151:Z O
*I I152:A4 I
*CAP
1 I151:Z 153.7
2 I152:A4 153.7
*RES
2 I151:Z I152:A4 4116.5
*END

*D_NET net_76 9.4
*CONN
*I I153:Q O
*I I154:CK I
*CAP
1 I153:Q 4.7
2 I154:CK 4.7
*RES
2 I153:Q I154:CK 730
*END

*D_NET net_77 242.2
*CONN
*I I155:Z O
*I I156:A2 I
*CAP
1 I155:Z 121.1
2 I156:A2 121.1
*RES
2 I155:Z I156:A2 12370
*END

*D_NET net_78 165.2
*CONN
*I I157:ZN O
*I I158:SI I
*CAP
1 I157:ZN 82.6
2 I158:SI 82.6
*RES
2 I157:ZN I158:SI 8530
*END

*D_NET net_79 5.8
*CONN
*I I159:ZN O
*I I160:D I
*CAP
1 I159:ZN 2.9
2 I160:D 2.9
*RES
2 I159:ZN I160:D 319
*END

*D_NET net_8 170.8
*CONN
*I I17:ZN O
*I I18:B I
*CAP
1 I17:ZN 85.4
2 I18:B 85.4
*RES
2 I17:ZN I18:B 2413
*END

*D_NET net_80 187.2
*CONN
*I I161:ZN O
*I I162:A I
*CAP
1 I161:ZN 93.6
2 I162:A 93.6
*RES
2 I161:ZN I162:A 18940
*END

*D_NET net_81 375.4
*CONN
*I I163:ZN O
*I I164:A1 I
*CAP
1 I163:ZN 187.7
2 I164:A1 187.7
*RES
2 I163:ZN I164:A1 4970.5
*END

*D_NET net_82 355.5
*CONN
*I I165:ZN O
*I I166:A1 I
*CAP
1 I165:ZN 177.75
2 I166:A1 177.75
*RES
2 I165:ZN I166:A1 363.1
*END

*D_NET net_83 316
*CONN
*I I167:ZN O
*I I168:A2 I
*CAP
1 I167:ZN 158
2 I168:A2 158
*RES
2 I167:ZN I168:A2 4236
*END

*D_NET net_84 191.8
*CONN
*I I169:ZN O
*I I170:A3 I
*CAP
1 I169:ZN 95.9
2 I170:A3 95.9
*RES
2 I169:ZN I170:A3 19400
*END

*D_NET net_85 207.8
*CONN
*I I171:ZN O
*I I172:A3 I
*CAP
1 I171:ZN 103.9
2 I172:A3 103.9
*RES
2 I171:ZN I172:A3 1329
*END

*D_NET net_86 249.6
*CONN
*I I173:ZN O
*I I174:A2 I
*CAP
1 I173:ZN 124.8
2 I174:A2 124.8
*RES
2 I173:ZN I174:A2 1536
*END

*D_NET net_87 842.5
*CONN
*I I175:Q O
*I I176:B2 I
*CAP
1 I175:Q 421.25
2 I176:B2 421.25
*RES
2 I175:Q I176:B2 460.5
*END

*D_NET net_88 988.5
*CONN
*I I177:ZN O
*I I178:B2 I
*CAP
1 I177:ZN 494.25
2 I178:B2 494.25
*RES
2 I177:ZN I178:B2 489.7
*END

*D_NET net_89 399.5
*CONN
*I I179:ZN O
*I I180:B1 I
*CAP
1 I179:ZN 199.75
2 I180:B1 199.75
*RES
2 I179:ZN I180:B1 371.9
*END

*D_NET net_9 318
*CONN
*I I19:ZN O
*I I20:A2 I
*CAP
1 I19:ZN 159
2 I20:A2 159
*RES
2 I19:ZN I20:A2 355.6
*END

*D_NET net_90 462.5
*CONN
*I I181:ZN O
*I I182:B2 I
*CAP
1 I181:ZN 231.25
2 I182:B2 231.25
*RES
2 I181:ZN I182:B2 384.5
*END

*D_NET net_91 166.6
*CONN
*I I183:ZN O
*I I184:B I
*CAP
1 I183:ZN 83.3
2 I184:B 83.3
*RES
2 I183:ZN I184:B 8590
*END

*D_NET net_92 293.2
*CONN
*I I185:ZN O
*I I186:A2 I
*CAP
1 I185:ZN 146.6
2 I186:A2 146.6
*RES
2 I185:ZN I186:A2 3951
*END

*D_NET net_93 152.6
*CONN
*I I187:ZN O
*I I188:A1 I
*CAP
1 I187:ZN 76.3
2 I188:A1 76.3
*RES
2 I187:ZN I188:A1 7900
*END

*D_NET net_94 350.6
*CONN
*I I189:Q O
*I I190:G I
*CAP
1 I189:Q 175.3
2 I190:G 175.3
*RES
2 I189:Q I190:G 17790
*END

*D_NET net_95 299
*CONN
*I I191:ZN O
*I I192:C1 I
*CAP
1 I191:ZN 149.5
2 I192:C1 149.5
*RES
2 I191:ZN I192:C1 1785
*END

*D_NET net_96 158.4
*CONN
*I I193:Z O
*I I194:CK I
*CAP
1 I193:Z 79.2
2 I194:CK 79.2
*RES
2 I193:Z I194:CK 2262
*END

*D_NET net_97 183
*CONN
*I I195:Z O
*I I196:D I
*CAP
1 I195:Z 91.5
2 I196:D 91.5
*RES
2 I195:Z I196:D 9400
*END

*D_NET net_98 17.4
*CONN
*I I197:ZN O
*I I198:CK I
*CAP
1 I197:ZN 8.7
2 I198:CK 8.7
*RES
2 I197:ZN I198:CK 1960
*END

*D_NET net_99 972
*CONN
*I I199:Q O
*I I200:EN I
*CAP
1 I199:Q 486
2 I200:EN 486
*RES
2 I199:Q I200:EN 486.4
*END
