*SPEF "1.0"
*DESIGN "tau2020_nangate"
*PROGRAM "RandomNets"
*T_UNIT 1 NS
*C_UNIT 1 FF
*R_UNIT 1 OHM

*PORTS 


*D_NET net_0 7.4
*CONN
*I I1:ZN O
*I I2:A I
*CAP
1 I1:ZN 3.7
2 I2:A 3.7
*RES
2 I1:ZN I2:A 370.5
*END

*D_NET net_1 8.1
*CONN
*I I3:Z O
*I I4:A I
*CAP
1 I3:Z 4.05
2 I4:A 4.05
*RES
2 I3:Z I4:A 1030
*END

*D_NET net_2 45.05
*CONN
*I I5:Z O
*I I6:A I
*CAP
1 I5:Z 22.525
2 I6:A 22.525
*RES
2 I5:Z I6:A 841.125
*END

*D_NET net_3 20
*CONN
*I I7:Z O
*I I8:A I
*CAP
1 I7:Z 10
2 I8:A 10
*RES
2 I7:Z I8:A 2240
*END

*D_NET net_4 85.8
*CONN
*I I10:A I
*I I9:Z O
*CAP
1 I9:Z 42.9
2 I10:A 42.9
*RES
2 I9:Z I10:A 4540
*END

*D_NET net_5 186
*CONN
*I I11:ZN O
*I I12:A I
*CAP
1 I11:ZN 93
2 I12:A 93
*RES
2 I11:ZN I12:A 9550
*END

*D_NET net_6 113.4
*CONN
*I I13:Z O
*I I14:A I
*CAP
1 I13:Z 56.7
2 I14:A 56.7
*RES
2 I13:Z I14:A 11580
*END

*D_NET net_7 91.4
*CONN
*I I15:ZN O
*I I16:A I
*CAP
1 I15:ZN 45.7
2 I16:A 45.7
*RES
2 I15:ZN I16:A 745
*END

*D_NET net_8 178
*CONN
*I I17:ZN O
*I I18:A I
*CAP
1 I17:ZN 89
2 I18:A 89
*RES
2 I17:ZN I18:A 327.6
*END

*D_NET net_9 18.05
*CONN
*I I19:Z O
*I I20:A I
*CAP
1 I19:Z 9.025
2 I20:A 9.025
*RES
2 I19:Z I20:A 511.625
*END
