*SPEF "1.0"
*DESIGN "tau2020v2"
*PROGRAM "RandomNets"
*T_UNIT 1 NS
*C_UNIT 1 FF
*R_UNIT 1 OHM

*PORTS 


*D_NET net_0 256.8
*CONN
*I I1:Y O
*I I2:A I
*CAP
1 I1:Y 128.4
2 I2:A 128.4
*RES
2 I1:Y I2:A 25900
*END

*D_NET net_1 20.5
*CONN
*I I3:Y O
*I I4:A I
*CAP
1 I3:Y 10.25
2 I4:A 10.25
*RES
2 I3:Y I4:A 295.1
*END

*D_NET net_10 980.5
*CONN
*I I21:Y O
*I I22:A I
*CAP
1 I21:Y 490.25
2 I22:A 490.25
*RES
2 I21:Y I22:A 488.1
*END

*D_NET net_11 363.6
*CONN
*I I23:Y O
*I I24:A I
*CAP
1 I23:Y 181.8
2 I24:A 181.8
*RES
2 I23:Y I24:A 2106
*END

*D_NET net_12 393.4
*CONN
*I I25:Y O
*I I26:A I
*CAP
1 I25:Y 196.7
2 I26:A 196.7
*RES
2 I25:Y I26:A 19920
*END

*D_NET net_13 320.5
*CONN
*I I27:Y O
*I I28:A I
*CAP
1 I27:Y 160.25
2 I28:A 160.25
*RES
2 I27:Y I28:A 355.1
*END

*D_NET net_14 226.8
*CONN
*I I29:Y O
*I I30:A I
*CAP
1 I29:Y 113.4
2 I30:A 113.4
*RES
2 I29:Y I30:A 11610
*END

*D_NET net_15 33.2
*CONN
*I I31:Y O
*I I32:A I
*CAP
1 I31:Y 16.6
2 I32:A 16.6
*RES
2 I31:Y I32:A 456
*END

*D_NET net_16 377.6
*CONN
*I I33:Y O
*I I34:A I
*CAP
1 I33:Y 188.8
2 I34:A 188.8
*RES
2 I33:Y I34:A 2176
*END

*D_NET net_17 271.4
*CONN
*I I35:Y O
*I I36:A I
*CAP
1 I35:Y 135.7
2 I36:A 135.7
*RES
2 I35:Y I36:A 3670.5
*END

*D_NET net_18 294.8
*CONN
*I I37:Y O
*I I38:A I
*CAP
1 I37:Y 147.4
2 I38:A 147.4
*RES
2 I37:Y I38:A 1762
*END

*D_NET net_19 694.5
*CONN
*I I39:Y O
*I I40:A I
*CAP
1 I39:Y 347.25
2 I40:A 347.25
*RES
2 I39:Y I40:A 429.9
*END

*D_NET net_2 11.2
*CONN
*I I5:Y O
*I I6:A I
*CAP
1 I5:Y 5.6
2 I6:A 5.6
*RES
2 I5:Y I6:A 422
*END

*D_NET net_20 285.8
*CONN
*I I41:Y O
*I I42:A I
*CAP
1 I41:Y 142.9
2 I42:A 142.9
*RES
2 I41:Y I42:A 3858.5
*END

*D_NET net_21 259.2
*CONN
*I I43:Y O
*I I44:A I
*CAP
1 I43:Y 129.6
2 I44:A 129.6
*RES
2 I43:Y I44:A 3518
*END

*D_NET net_22 272.5
*CONN
*I I45:Y O
*I I46:A I
*CAP
1 I45:Y 136.25
2 I46:A 136.25
*RES
2 I45:Y I46:A 346.5
*END

*D_NET net_23 860
*CONN
*I I47:Y O
*I I48:A I
*CAP
1 I47:Y 430
2 I48:A 430
*RES
2 I47:Y I48:A 463
*END

*D_NET net_24 293.4
*CONN
*I I49:Y O
*I I50:A I
*CAP
1 I49:Y 146.7
2 I50:A 146.7
*RES
2 I49:Y I50:A 1755
*END

*D_NET net_25 258.2
*CONN
*I I51:Y O
*I I52:A I
*CAP
1 I51:Y 129.1
2 I52:A 129.1
*RES
2 I51:Y I52:A 3501.5
*END

*D_NET net_26 17.6
*CONN
*I I53:Y O
*I I54:A I
*CAP
1 I53:Y 8.8
2 I54:A 8.8
*RES
2 I53:Y I54:A 1980
*END

*D_NET net_27 104
*CONN
*I I55:Y O
*I I56:A I
*CAP
1 I55:Y 52
2 I56:A 52
*RES
2 I55:Y I56:A 1574
*END

*D_NET net_28 241.05
*CONN
*I I57:Y O
*I I58:A I
*CAP
1 I57:Y 120.525
2 I58:A 120.525
*RES
2 I57:Y I58:A 160900
*END

*D_NET net_29 131.2
*CONN
*I I59:Y O
*I I60:A I
*CAP
1 I59:Y 65.6
2 I60:A 65.6
*RES
2 I59:Y I60:A 6820
*END

*D_NET net_3 322.2
*CONN
*I I7:Y O
*I I8:A I
*CAP
1 I7:Y 161.1
2 I8:A 161.1
*RES
2 I7:Y I8:A 4305.5
*END

*D_NET net_30 169.8
*CONN
*I I61:Y O
*I I62:A I
*CAP
1 I61:Y 84.9
2 I62:A 84.9
*RES
2 I61:Y I62:A 1137
*END

*D_NET net_31 103.2
*CONN
*I I63:Y O
*I I64:A I
*CAP
1 I63:Y 51.6
2 I64:A 51.6
*RES
2 I63:Y I64:A 5410
*END

*D_NET net_32 333.2
*CONN
*I I65:Y O
*I I66:A I
*CAP
1 I65:Y 166.6
2 I66:A 166.6
*RES
2 I65:Y I66:A 4451
*END

*D_NET net_33 59.4
*CONN
*I I67:Y O
*I I68:A I
*CAP
1 I67:Y 29.7
2 I68:A 29.7
*RES
2 I67:Y I68:A 1020.5
*END

*D_NET net_34 336
*CONN
*I I69:Y O
*I I70:A I
*CAP
1 I69:Y 168
2 I70:A 168
*RES
2 I69:Y I70:A 17070
*END

*D_NET net_35 174.6
*CONN
*I I71:Y O
*I I72:A I
*CAP
1 I71:Y 87.3
2 I72:A 87.3
*RES
2 I71:Y I72:A 116600
*END

*D_NET net_36 33.4
*CONN
*I I73:Y O
*I I74:A I
*CAP
1 I73:Y 16.7
2 I74:A 16.7
*RES
2 I73:Y I74:A 457
*END

*D_NET net_37 366.6
*CONN
*I I75:Y O
*I I76:A I
*CAP
1 I75:Y 183.3
2 I76:A 183.3
*RES
2 I75:Y I76:A 4868.5
*END

*D_NET net_38 238.8
*CONN
*I I77:Y O
*I I78:A I
*CAP
1 I77:Y 119.4
2 I78:A 119.4
*RES
2 I77:Y I78:A 1484
*END

*D_NET net_39 145.8
*CONN
*I I79:Y O
*I I80:A I
*CAP
1 I79:Y 72.9
2 I80:A 72.9
*RES
2 I79:Y I80:A 2104.5
*END

*D_NET net_4 776.5
*CONN
*I I10:A I
*I I9:Y O
*CAP
1 I9:Y 388.25
2 I10:A 388.25
*RES
2 I9:Y I10:A 446.3
*END

*D_NET net_40 116
*CONN
*I I81:Y O
*I I82:A I
*CAP
1 I81:Y 58
2 I82:A 58
*RES
2 I81:Y I82:A 315.2
*END

*D_NET net_41 17.2
*CONN
*I I83:Y O
*I I84:A I
*CAP
1 I83:Y 8.6
2 I84:A 8.6
*RES
2 I83:Y I84:A 497
*END

*D_NET net_42 61.8
*CONN
*I I85:Y O
*I I86:A I
*CAP
1 I85:Y 30.9
2 I86:A 30.9
*RES
2 I85:Y I86:A 599
*END

*D_NET net_43 677
*CONN
*I I87:Y O
*I I88:A I
*CAP
1 I87:Y 338.5
2 I88:A 338.5
*RES
2 I87:Y I88:A 427.4
*END

*D_NET net_44 163
*CONN
*I I89:Y O
*I I90:A I
*CAP
1 I89:Y 81.5
2 I90:A 81.5
*RES
2 I89:Y I90:A 8410
*END

*D_NET net_45 352
*CONN
*I I91:Y O
*I I92:A I
*CAP
1 I91:Y 176
2 I92:A 176
*RES
2 I91:Y I92:A 4678
*END

*D_NET net_46 624
*CONN
*I I93:Y O
*I I94:A I
*CAP
1 I93:Y 312
2 I94:A 312
*RES
2 I93:Y I94:A 416.8
*END

*D_NET net_47 132
*CONN
*I I95:Y O
*I I96:A I
*CAP
1 I95:Y 66
2 I96:A 66
*RES
2 I95:Y I96:A 317.4
*END

*D_NET net_48 348
*CONN
*I I97:Y O
*I I98:A I
*CAP
1 I97:Y 174
2 I98:A 174
*RES
2 I97:Y I98:A 360.6
*END

*D_NET net_49 188.6
*CONN
*I I100:A I
*I I99:Y O
*CAP
1 I99:Y 94.3
2 I100:A 94.3
*RES
2 I99:Y I100:A 2635.5
*END

*D_NET net_5 63.5
*CONN
*I I11:Y O
*I I12:A I
*CAP
1 I11:Y 31.75
2 I12:A 31.75
*RES
2 I11:Y I12:A 304.7
*END

*D_NET net_50 273.6
*CONN
*I I101:Y O
*I I102:A I
*CAP
1 I101:Y 136.8
2 I102:A 136.8
*RES
2 I101:Y I102:A 1658
*END

*D_NET net_51 71
*CONN
*I I103:Y O
*I I104:A I
*CAP
1 I103:Y 35.5
2 I104:A 35.5
*RES
2 I103:Y I104:A 1165.5
*END

*D_NET net_52 353.2
*CONN
*I I105:Y O
*I I106:A I
*CAP
1 I105:Y 176.6
2 I106:A 176.6
*RES
2 I105:Y I106:A 4697
*END

*D_NET net_53 6.5
*CONN
*I I107:Y O
*I I108:A I
*CAP
1 I107:Y 3.25
2 I108:A 3.25
*RES
2 I107:Y I108:A 293.3
*END

*D_NET net_54 106.6
*CONN
*I I109:Y O
*I I110:A I
*CAP
1 I109:Y 53.3
2 I110:A 53.3
*RES
2 I109:Y I110:A 10880
*END

*D_NET net_55 114.8
*CONN
*I I111:Y O
*I I112:A I
*CAP
1 I111:Y 57.4
2 I112:A 57.4
*RES
2 I111:Y I112:A 862
*END

*D_NET net_56 223
*CONN
*I I113:Y O
*I I114:A I
*CAP
1 I113:Y 111.5
2 I114:A 111.5
*RES
2 I113:Y I114:A 22520
*END

*D_NET net_57 306.2
*CONN
*I I115:Y O
*I I116:A I
*CAP
1 I115:Y 153.1
2 I116:A 153.1
*RES
2 I115:Y I116:A 4113.5
*END

*D_NET net_58 192
*CONN
*I I117:Y O
*I I118:A I
*CAP
1 I117:Y 96
2 I118:A 96
*RES
2 I117:Y I118:A 128200
*END

*D_NET net_59 290.4
*CONN
*I I119:Y O
*I I120:A I
*CAP
1 I119:Y 145.2
2 I120:A 145.2
*RES
2 I119:Y I120:A 3908
*END

*D_NET net_6 111.8
*CONN
*I I13:Y O
*I I14:A I
*CAP
1 I13:Y 55.9
2 I14:A 55.9
*RES
2 I13:Y I14:A 11400
*END

*D_NET net_60 119.4
*CONN
*I I121:Y O
*I I122:A I
*CAP
1 I121:Y 59.7
2 I122:A 59.7
*RES
2 I121:Y I122:A 1778.5
*END

*D_NET net_61 115.2
*CONN
*I I123:Y O
*I I124:A I
*CAP
1 I123:Y 57.6
2 I124:A 57.6
*RES
2 I123:Y I124:A 866
*END

*D_NET net_62 57.2
*CONN
*I I125:Y O
*I I126:A I
*CAP
1 I125:Y 28.6
2 I126:A 28.6
*RES
2 I125:Y I126:A 989
*END

*D_NET net_63 305.5
*CONN
*I I127:Y O
*I I128:A I
*CAP
1 I127:Y 152.75
2 I128:A 152.75
*RES
2 I127:Y I128:A 352.1
*END

*D_NET net_64 386
*CONN
*I I129:Y O
*I I130:A I
*CAP
1 I129:Y 193
2 I130:A 193
*RES
2 I129:Y I130:A 5111
*END

*D_NET net_65 201.8
*CONN
*I I131:Y O
*I I132:A I
*CAP
1 I131:Y 100.9
2 I132:A 100.9
*RES
2 I131:Y I132:A 1299
*END

*D_NET net_66 101.8
*CONN
*I I133:Y O
*I I134:A I
*CAP
1 I133:Y 50.9
2 I134:A 50.9
*RES
2 I133:Y I134:A 1546.5
*END

*D_NET net_67 16.4
*CONN
*I I135:Y O
*I I136:A I
*CAP
1 I135:Y 8.2
2 I136:A 8.2
*RES
2 I135:Y I136:A 1070
*END

*D_NET net_68 358.5
*CONN
*I I137:Y O
*I I138:A I
*CAP
1 I137:Y 179.25
2 I138:A 179.25
*RES
2 I137:Y I138:A 362.7
*END

*D_NET net_69 90.2
*CONN
*I I139:Y O
*I I140:A I
*CAP
1 I139:Y 45.1
2 I140:A 45.1
*RES
2 I139:Y I140:A 4770
*END

*D_NET net_7 310.8
*CONN
*I I15:Y O
*I I16:A I
*CAP
1 I15:Y 155.4
2 I16:A 155.4
*RES
2 I15:Y I16:A 15810
*END

*D_NET net_70 203
*CONN
*I I141:Y O
*I I142:A I
*CAP
1 I141:Y 101.5
2 I142:A 101.5
*RES
2 I141:Y I142:A 2819.5
*END

*D_NET net_71 137.8
*CONN
*I I143:Y O
*I I144:A I
*CAP
1 I143:Y 68.9
2 I144:A 68.9
*RES
2 I143:Y I144:A 14020
*END

*D_NET net_72 379.6
*CONN
*I I145:Y O
*I I146:A I
*CAP
1 I145:Y 189.8
2 I146:A 189.8
*RES
2 I145:Y I146:A 5023
*END

*D_NET net_73 32
*CONN
*I I147:Y O
*I I148:A I
*CAP
1 I147:Y 16
2 I148:A 16
*RES
2 I147:Y I148:A 682
*END

*D_NET net_74 123.6
*CONN
*I I149:Y O
*I I150:A I
*CAP
1 I149:Y 61.8
2 I150:A 61.8
*RES
2 I149:Y I150:A 1819
*END

*D_NET net_75 166.4
*CONN
*I I151:Y O
*I I152:A I
*CAP
1 I151:Y 83.2
2 I152:A 83.2
*RES
2 I151:Y I152:A 2366
*END

*D_NET net_76 138.5
*CONN
*I I153:Y O
*I I154:A I
*CAP
1 I153:Y 69.25
2 I154:A 69.25
*RES
2 I153:Y I154:A 318.7
*END

*D_NET net_77 68.4
*CONN
*I I155:Y O
*I I156:A I
*CAP
1 I155:Y 34.2
2 I156:A 34.2
*RES
2 I155:Y I156:A 632
*END

*D_NET net_78 386.8
*CONN
*I I157:Y O
*I I158:A I
*CAP
1 I157:Y 193.4
2 I158:A 193.4
*RES
2 I157:Y I158:A 5117
*END

*D_NET net_79 63.8
*CONN
*I I159:Y O
*I I160:A I
*CAP
1 I159:Y 31.9
2 I160:A 31.9
*RES
2 I159:Y I160:A 607
*END

*D_NET net_8 393.2
*CONN
*I I17:Y O
*I I18:A I
*CAP
1 I17:Y 196.6
2 I18:A 196.6
*RES
2 I17:Y I18:A 19910
*END

*D_NET net_80 38.6
*CONN
*I I161:Y O
*I I162:A I
*CAP
1 I161:Y 19.3
2 I162:A 19.3
*RES
2 I161:Y I162:A 764.5
*END

*D_NET net_81 144.8
*CONN
*I I163:Y O
*I I164:A I
*CAP
1 I163:Y 72.4
2 I164:A 72.4
*RES
2 I163:Y I164:A 2096
*END

*D_NET net_82 85.6
*CONN
*I I165:Y O
*I I166:A I
*CAP
1 I165:Y 42.8
2 I166:A 42.8
*RES
2 I165:Y I166:A 716
*END

*D_NET net_83 277.8
*CONN
*I I167:Y O
*I I168:A I
*CAP
1 I167:Y 138.9
2 I168:A 138.9
*RES
2 I167:Y I168:A 14150
*END

*D_NET net_84 126.4
*CONN
*I I169:Y O
*I I170:A I
*CAP
1 I169:Y 63.2
2 I170:A 63.2
*RES
2 I169:Y I170:A 6580
*END

*D_NET net_85 191.4
*CONN
*I I171:Y O
*I I172:A I
*CAP
1 I171:Y 95.7
2 I172:A 95.7
*RES
2 I171:Y I172:A 1247
*END

*D_NET net_86 330.5
*CONN
*I I173:Y O
*I I174:A I
*CAP
1 I173:Y 165.25
2 I174:A 165.25
*RES
2 I173:Y I174:A 358.1
*END

*D_NET net_87 316
*CONN
*I I175:Y O
*I I176:A I
*CAP
1 I175:Y 158
2 I176:A 158
*RES
2 I175:Y I176:A 16060
*END

*D_NET net_88 111.2
*CONN
*I I177:Y O
*I I178:A I
*CAP
1 I177:Y 55.6
2 I178:A 55.6
*RES
2 I177:Y I178:A 5820
*END

*D_NET net_89 114.6
*CONN
*I I179:Y O
*I I180:A I
*CAP
1 I179:Y 57.3
2 I180:A 57.3
*RES
2 I179:Y I180:A 1718.5
*END

*D_NET net_9 50.25
*CONN
*I I19:Y O
*I I20:A I
*CAP
1 I19:Y 25.125
2 I20:A 25.125
*RES
2 I19:Y I20:A 33700
*END

*D_NET net_90 162.5
*CONN
*I I181:Y O
*I I182:A I
*CAP
1 I181:Y 81.25
2 I182:A 81.25
*RES
2 I181:Y I182:A 323.5
*END

*D_NET net_91 104.85
*CONN
*I I183:Y O
*I I184:A I
*CAP
1 I183:Y 52.425
2 I184:A 52.425
*RES
2 I183:Y I184:A 70100
*END

*D_NET net_92 370.2
*CONN
*I I185:Y O
*I I186:A I
*CAP
1 I185:Y 185.1
2 I186:A 185.1
*RES
2 I185:Y I186:A 2139
*END

*D_NET net_93 320
*CONN
*I I187:Y O
*I I188:A I
*CAP
1 I187:Y 160
2 I188:A 160
*RES
2 I187:Y I188:A 4278
*END

*D_NET net_94 301.5
*CONN
*I I189:Y O
*I I190:A I
*CAP
1 I189:Y 150.75
2 I190:A 150.75
*RES
2 I189:Y I190:A 351.3
*END

*D_NET net_95 249.4
*CONN
*I I191:Y O
*I I192:A I
*CAP
1 I191:Y 124.7
2 I192:A 124.7
*RES
2 I191:Y I192:A 12740
*END

*D_NET net_96 138.2
*CONN
*I I193:Y O
*I I194:A I
*CAP
1 I193:Y 69.1
2 I194:A 69.1
*RES
2 I193:Y I194:A 979
*END

*D_NET net_97 181.8
*CONN
*I I195:Y O
*I I196:A I
*CAP
1 I195:Y 90.9
2 I196:A 90.9
*RES
2 I195:Y I196:A 9360
*END

*D_NET net_98 459
*CONN
*I I197:Y O
*I I198:A I
*CAP
1 I197:Y 229.5
2 I198:A 229.5
*RES
2 I197:Y I198:A 382.8
*END

*D_NET net_99 376
*CONN
*I I199:Y O
*I I200:A I
*CAP
1 I199:Y 188
2 I200:A 188
*RES
2 I199:Y I200:A 2170
*END
