*SPEF "1.0"
*DESIGN "tau2020_testsuite0131"
*PROGRAM "RandomNets"
*T_UNIT 1 NS
*C_UNIT 1 FF
*R_UNIT 1 OHM

*PORTS 


*D_NET net_0 118.75
*CONN
*I I1:Y O
*I I2:A I
*CAP
1 I1:Y 59.375
2 I2:A 59.375
*RES
2 I1:Y I2:A 314.75
*END

*D_NET net_1 88.95
*CONN
*I I3:Y O
*I I4:A I
*CAP
1 I3:Y 44.475
2 I4:A 44.475
*RES
2 I3:Y I4:A 59500
*END

*D_NET net_2 244.5
*CONN
*I I5:Y O
*I I6:A I
*CAP
1 I5:Y 122.25
2 I6:A 122.25
*RES
2 I5:Y I6:A 340.9
*END

*D_NET net_3 5.4
*CONN
*I I7:Y O
*I I8:A I
*CAP
1 I7:Y 2.7
2 I8:A 2.7
*RES
2 I7:Y I8:A 530
*END

*D_NET net_4 45.4
*CONN
*I I10:A I
*I I9:Y O
*CAP
1 I9:Y 22.7
2 I10:A 22.7
*RES
2 I9:Y I10:A 515
*END

*D_NET net_5 15.1
*CONN
*I I11:Y O
*I I12:A I
*CAP
1 I11:Y 7.55
2 I12:A 7.55
*RES
2 I11:Y I12:A 466.75
*END

*D_NET net_6 100.8
*CONN
*I I13:Y O
*I I14:A I
*CAP
1 I13:Y 50.4
2 I14:A 50.4
*RES
2 I13:Y I14:A 10320
*END

*D_NET net_7 140
*CONN
*I I15:Y O
*I I16:A I
*CAP
1 I15:Y 70
2 I16:A 70
*RES
2 I15:Y I16:A 320
*END

*D_NET net_8 15.5625
*CONN
*I I17:Y O
*I I18:A I
*CAP
1 I17:Y 7.78125
2 I18:A 7.78125
*RES
2 I17:Y I18:A 294.113
*END

*D_NET net_9 110
*CONN
*I I19:Y O
*I I20:A I
*CAP
1 I19:Y 55
2 I20:A 55
*RES
2 I19:Y I20:A 838
*END
