*SPEF "1.0"
*DESIGN "tau2020_nangate"
*PROGRAM "RandomNets"
*T_UNIT 1 NS
*C_UNIT 1 FF
*R_UNIT 1 OHM

*PORTS 


*D_NET net_0 100.5
*CONN
*I I1:ZN O
*I I2:A I
*CAP
1 I1:ZN 50.25
2 I2:A 50.25
*RES
2 I1:ZN I2:A 311.1
*END

*D_NET net_1 172
*CONN
*I I3:Z O
*I I4:A I
*CAP
1 I3:Z 86
2 I4:A 86
*RES
2 I3:Z I4:A 2432
*END

*D_NET net_2 161
*CONN
*I I5:ZN O
*I I6:A I
*CAP
1 I5:ZN 80.5
2 I6:A 80.5
*RES
2 I5:ZN I6:A 324.2
*END

*D_NET net_3 52.4
*CONN
*I I7:ZN O
*I I8:A I
*CAP
1 I7:ZN 26.2
2 I8:A 26.2
*RES
2 I7:ZN I8:A 5460
*END

*D_NET net_4 110.4
*CONN
*I I10:A I
*I I9:ZN O
*CAP
1 I9:ZN 55.2
2 I10:A 55.2
*RES
2 I9:ZN I10:A 842
*END

*D_NET net_5 55.5
*CONN
*I I11:Z O
*I I12:A I
*CAP
1 I11:Z 27.75
2 I12:A 27.75
*RES
2 I11:Z I12:A 303.1
*END

*D_NET net_6 35.2
*CONN
*I I13:Z O
*I I14:A I
*CAP
1 I13:Z 17.6
2 I14:A 17.6
*RES
2 I13:Z I14:A 3740
*END

*D_NET net_7 25.2812
*CONN
*I I15:ZN O
*I I16:A I
*CAP
1 I15:ZN 12.6406
2 I16:A 12.6406
*RES
2 I15:ZN I16:A 297.056
*END

*D_NET net_8 137.6
*CONN
*I I17:ZN O
*I I18:A I
*CAP
1 I17:ZN 68.8
2 I18:A 68.8
*RES
2 I17:ZN I18:A 2002
*END

*D_NET net_9 89.9
*CONN
*I I19:Z O
*I I20:A I
*CAP
1 I19:Z 44.95
2 I20:A 44.95
*RES
2 I19:Z I20:A 1397.75
*END
