*SPEF "1.0"
*DESIGN "tau2020v1"
*PROGRAM "RandomNets"
*T_UNIT 1 NS
*C_UNIT 1 FF
*R_UNIT 1 OHM

*PORTS 


*D_NET net_0 159.6
*CONN
*I I1:ZN O
*I I2:A I
*CAP
1 I1:ZN 79.8
2 I2:A 79.8
*RES
2 I1:ZN I2:A 16180
*END

*D_NET net_1 180
*CONN
*I I3:ZN O
*I I4:A I
*CAP
1 I3:ZN 90
2 I4:A 90
*RES
2 I3:ZN I4:A 2528
*END

*D_NET net_10 80.8
*CONN
*I I21:ZN O
*I I22:A I
*CAP
1 I21:ZN 40.4
2 I22:A 40.4
*RES
2 I21:ZN I22:A 4300
*END

*D_NET net_11 53.8
*CONN
*I I23:ZN O
*I I24:A I
*CAP
1 I23:ZN 26.9
2 I24:A 26.9
*RES
2 I23:ZN I24:A 559
*END

*D_NET net_12 116.8
*CONN
*I I25:ZN O
*I I26:A I
*CAP
1 I25:ZN 58.4
2 I26:A 58.4
*RES
2 I25:ZN I26:A 1742
*END

*D_NET net_13 157
*CONN
*I I27:ZN O
*I I28:A I
*CAP
1 I27:ZN 78.5
2 I28:A 78.5
*RES
2 I27:ZN I28:A 1073
*END

*D_NET net_14 45.2
*CONN
*I I29:Z O
*I I30:A I
*CAP
1 I29:Z 22.6
2 I30:A 22.6
*RES
2 I29:Z I30:A 851
*END

*D_NET net_15 73.8
*CONN
*I I31:ZN O
*I I32:A I
*CAP
1 I31:ZN 36.9
2 I32:A 36.9
*RES
2 I31:ZN I32:A 657
*END

*D_NET net_16 80.4
*CONN
*I I33:ZN O
*I I34:A I
*CAP
1 I33:ZN 40.2
2 I34:A 40.2
*RES
2 I33:ZN I34:A 4280
*END

*D_NET net_17 161.8
*CONN
*I I35:Z O
*I I36:A I
*CAP
1 I35:Z 80.9
2 I36:A 80.9
*RES
2 I35:Z I36:A 2308.5
*END

*D_NET net_18 151.6
*CONN
*I I37:ZN O
*I I38:A I
*CAP
1 I37:ZN 75.8
2 I38:A 75.8
*RES
2 I37:ZN I38:A 7830
*END

*D_NET net_19 181
*CONN
*I I39:Z O
*I I40:A I
*CAP
1 I39:Z 90.5
2 I40:A 90.5
*RES
2 I39:Z I40:A 9300
*END

*D_NET net_2 74
*CONN
*I I5:ZN O
*I I6:A I
*CAP
1 I5:ZN 37
2 I6:A 37
*RES
2 I5:ZN I6:A 660
*END

*D_NET net_20 45
*CONN
*I I41:ZN O
*I I42:A I
*CAP
1 I41:ZN 22.5
2 I42:A 22.5
*RES
2 I41:ZN I42:A 300
*END

*D_NET net_21 197
*CONN
*I I43:ZN O
*I I44:A I
*CAP
1 I43:ZN 98.5
2 I44:A 98.5
*RES
2 I43:ZN I44:A 19940
*END

*D_NET net_22 164.6
*CONN
*I I45:ZN O
*I I46:A I
*CAP
1 I45:ZN 82.3
2 I46:A 82.3
*RES
2 I45:ZN I46:A 16700
*END

*D_NET net_23 96.75
*CONN
*I I47:ZN O
*I I48:A I
*CAP
1 I47:ZN 48.375
2 I48:A 48.375
*RES
2 I47:ZN I48:A 64700
*END

*D_NET net_24 12.4
*CONN
*I I49:Z O
*I I50:A I
*CAP
1 I49:Z 6.2
2 I50:A 6.2
*RES
2 I49:Z I50:A 890
*END

*D_NET net_25 77
*CONN
*I I51:ZN O
*I I52:A I
*CAP
1 I51:ZN 38.5
2 I52:A 38.5
*RES
2 I51:ZN I52:A 673
*END

*D_NET net_26 49.6
*CONN
*I I53:ZN O
*I I54:A I
*CAP
1 I53:ZN 24.8
2 I54:A 24.8
*RES
2 I53:ZN I54:A 906
*END

*D_NET net_27 5.4
*CONN
*I I55:ZN O
*I I56:A I
*CAP
1 I55:ZN 2.7
2 I56:A 2.7
*RES
2 I55:ZN I56:A 345.5
*END

*D_NET net_28 73.8
*CONN
*I I57:Z O
*I I58:A I
*CAP
1 I57:Z 36.9
2 I58:A 36.9
*RES
2 I57:Z I58:A 3950
*END

*D_NET net_29 44.4
*CONN
*I I59:ZN O
*I I60:A I
*CAP
1 I59:ZN 22.2
2 I60:A 22.2
*RES
2 I59:ZN I60:A 512
*END

*D_NET net_3 18.4
*CONN
*I I7:Z O
*I I8:A I
*CAP
1 I7:Z 9.2
2 I8:A 9.2
*RES
2 I7:Z I8:A 512
*END

*D_NET net_30 168.2
*CONN
*I I61:ZN O
*I I62:A I
*CAP
1 I61:ZN 84.1
2 I62:A 84.1
*RES
2 I61:ZN I62:A 1131
*END

*D_NET net_31 111
*CONN
*I I63:ZN O
*I I64:A I
*CAP
1 I63:ZN 55.5
2 I64:A 55.5
*RES
2 I63:ZN I64:A 314.2
*END

*D_NET net_32 72.2
*CONN
*I I65:ZN O
*I I66:A I
*CAP
1 I65:ZN 36.1
2 I66:A 36.1
*RES
2 I65:ZN I66:A 649
*END

*D_NET net_33 199.4
*CONN
*I I67:Z O
*I I68:A I
*CAP
1 I67:Z 99.7
2 I68:A 99.7
*RES
2 I67:Z I68:A 2766.5
*END

*D_NET net_34 117.8
*CONN
*I I69:Z O
*I I70:A I
*CAP
1 I69:Z 58.9
2 I70:A 58.9
*RES
2 I69:Z I70:A 6140
*END

*D_NET net_35 183.6
*CONN
*I I71:ZN O
*I I72:A I
*CAP
1 I71:ZN 91.8
2 I72:A 91.8
*RES
2 I71:ZN I72:A 9440
*END

*D_NET net_36 293.5
*CONN
*I I73:Z O
*I I74:A I
*CAP
1 I73:Z 146.75
2 I74:A 146.75
*RES
2 I73:Z I74:A 350.7
*END

*D_NET net_37 193.6
*CONN
*I I75:ZN O
*I I76:A I
*CAP
1 I75:ZN 96.8
2 I76:A 96.8
*RES
2 I75:ZN I76:A 9950
*END

*D_NET net_38 197.4
*CONN
*I I77:Z O
*I I78:A I
*CAP
1 I77:Z 98.7
2 I78:A 98.7
*RES
2 I77:Z I78:A 19960
*END

*D_NET net_39 19.6
*CONN
*I I79:ZN O
*I I80:A I
*CAP
1 I79:ZN 9.8
2 I80:A 9.8
*RES
2 I79:ZN I80:A 388
*END

*D_NET net_4 76.2
*CONN
*I I10:A I
*I I9:Z O
*CAP
1 I9:Z 38.1
2 I10:A 38.1
*RES
2 I9:Z I10:A 4080
*END

*D_NET net_40 116.2
*CONN
*I I81:ZN O
*I I82:A I
*CAP
1 I81:ZN 58.1
2 I82:A 58.1
*RES
2 I81:ZN I82:A 6070
*END

*D_NET net_41 108.2
*CONN
*I I83:ZN O
*I I84:A I
*CAP
1 I83:ZN 54.1
2 I84:A 54.1
*RES
2 I83:ZN I84:A 1638.5
*END

*D_NET net_42 199.5
*CONN
*I I85:Z O
*I I86:A I
*CAP
1 I85:Z 99.75
2 I86:A 99.75
*RES
2 I85:Z I86:A 330.9
*END

*D_NET net_43 84.8
*CONN
*I I87:ZN O
*I I88:A I
*CAP
1 I87:ZN 42.4
2 I88:A 42.4
*RES
2 I87:ZN I88:A 8720
*END

*D_NET net_44 183.4
*CONN
*I I89:ZN O
*I I90:A I
*CAP
1 I89:ZN 91.7
2 I90:A 91.7
*RES
2 I89:ZN I90:A 2566.5
*END

*D_NET net_45 58.2
*CONN
*I I91:Z O
*I I92:A I
*CAP
1 I91:Z 29.1
2 I92:A 29.1
*RES
2 I91:Z I92:A 581
*END

*D_NET net_46 45.8
*CONN
*I I93:ZN O
*I I94:A I
*CAP
1 I93:ZN 22.9
2 I94:A 22.9
*RES
2 I93:ZN I94:A 4820
*END

*D_NET net_47 164
*CONN
*I I95:Z O
*I I96:A I
*CAP
1 I95:Z 82
2 I96:A 82
*RES
2 I95:Z I96:A 2324
*END

*D_NET net_48 174.6
*CONN
*I I97:ZN O
*I I98:A I
*CAP
1 I97:ZN 87.3
2 I98:A 87.3
*RES
2 I97:ZN I98:A 2464.5
*END

*D_NET net_49 125
*CONN
*I I100:A I
*I I99:ZN O
*CAP
1 I99:ZN 62.5
2 I100:A 62.5
*RES
2 I99:ZN I100:A 1848.5
*END

*D_NET net_5 136
*CONN
*I I11:Z O
*I I12:A I
*CAP
1 I11:Z 68
2 I12:A 68
*RES
2 I11:Z I12:A 970
*END

*D_NET net_50 369.5
*CONN
*I I101:Z O
*I I102:A I
*CAP
1 I101:Z 184.75
2 I102:A 184.75
*RES
2 I101:Z I102:A 364.9
*END

*D_NET net_51 38.2
*CONN
*I I103:ZN O
*I I104:A I
*CAP
1 I103:ZN 19.1
2 I104:A 19.1
*RES
2 I103:ZN I104:A 751.5
*END

*D_NET net_52 402
*CONN
*I I105:Z O
*I I106:A I
*CAP
1 I105:Z 201
2 I106:A 201
*RES
2 I105:Z I106:A 371.4
*END

*D_NET net_53 8.8
*CONN
*I I107:ZN O
*I I108:A I
*CAP
1 I107:ZN 4.4
2 I108:A 4.4
*RES
2 I107:ZN I108:A 392
*END

*D_NET net_54 36
*CONN
*I I109:ZN O
*I I110:A I
*CAP
1 I109:ZN 18
2 I110:A 18
*RES
2 I109:ZN I110:A 3820
*END

*D_NET net_55 33
*CONN
*I I111:Z O
*I I112:A I
*CAP
1 I111:Z 16.5
2 I112:A 16.5
*RES
2 I111:Z I112:A 1900
*END

*D_NET net_56 101.4
*CONN
*I I113:ZN O
*I I114:A I
*CAP
1 I113:ZN 50.7
2 I114:A 50.7
*RES
2 I113:ZN I114:A 5330
*END

*D_NET net_57 120.2
*CONN
*I I115:ZN O
*I I116:A I
*CAP
1 I115:ZN 60.1
2 I116:A 60.1
*RES
2 I115:ZN I116:A 6270
*END

*D_NET net_58 137
*CONN
*I I117:ZN O
*I I118:A I
*CAP
1 I117:ZN 68.5
2 I118:A 68.5
*RES
2 I117:ZN I118:A 13920
*END

*D_NET net_59 28.2
*CONN
*I I119:Z O
*I I120:A I
*CAP
1 I119:Z 14.1
2 I120:A 14.1
*RES
2 I119:Z I120:A 1660
*END

*D_NET net_6 298.5
*CONN
*I I13:Z O
*I I14:A I
*CAP
1 I13:Z 149.25
2 I14:A 149.25
*RES
2 I13:Z I14:A 351.7
*END

*D_NET net_60 72
*CONN
*I I121:Z O
*I I122:A I
*CAP
1 I121:Z 36
2 I122:A 36
*RES
2 I121:Z I122:A 306.4
*END

*D_NET net_61 98.1
*CONN
*I I123:ZN O
*I I124:A I
*CAP
1 I123:ZN 49.05
2 I124:A 49.05
*RES
2 I123:ZN I124:A 65600
*END

*D_NET net_62 93.6
*CONN
*I I125:ZN O
*I I126:A I
*CAP
1 I125:ZN 46.8
2 I126:A 46.8
*RES
2 I125:ZN I126:A 4950
*END

*D_NET net_63 442
*CONN
*I I127:Z O
*I I128:A I
*CAP
1 I127:Z 221
2 I128:A 221
*RES
2 I127:Z I128:A 380.4
*END

*D_NET net_64 100.4
*CONN
*I I129:ZN O
*I I130:A I
*CAP
1 I129:ZN 50.2
2 I130:A 50.2
*RES
2 I129:ZN I130:A 5270
*END

*D_NET net_65 127.4
*CONN
*I I131:Z O
*I I132:A I
*CAP
1 I131:Z 63.7
2 I132:A 63.7
*RES
2 I131:Z I132:A 12960
*END

*D_NET net_66 179.2
*CONN
*I I133:Z O
*I I134:A I
*CAP
1 I133:Z 89.6
2 I134:A 89.6
*RES
2 I133:Z I134:A 2522
*END

*D_NET net_67 73.8
*CONN
*I I135:ZN O
*I I136:A I
*CAP
1 I135:ZN 36.9
2 I136:A 36.9
*RES
2 I135:ZN I136:A 7620
*END

*D_NET net_68 132
*CONN
*I I137:ZN O
*I I138:A I
*CAP
1 I137:ZN 66
2 I138:A 66
*RES
2 I137:ZN I138:A 1936
*END

*D_NET net_69 76
*CONN
*I I139:ZN O
*I I140:A I
*CAP
1 I139:ZN 38
2 I140:A 38
*RES
2 I139:ZN I140:A 7820
*END

*D_NET net_7 13
*CONN
*I I15:ZN O
*I I16:A I
*CAP
1 I15:ZN 6.5
2 I16:A 6.5
*RES
2 I15:ZN I16:A 448.5
*END

*D_NET net_70 81.2
*CONN
*I I141:Z O
*I I142:A I
*CAP
1 I141:Z 40.6
2 I142:A 40.6
*RES
2 I141:Z I142:A 4330
*END

*D_NET net_71 196.2
*CONN
*I I143:Z O
*I I144:A I
*CAP
1 I143:Z 98.1
2 I144:A 98.1
*RES
2 I143:Z I144:A 2734.5
*END

*D_NET net_72 52.2
*CONN
*I I145:ZN O
*I I146:A I
*CAP
1 I145:ZN 26.1
2 I146:A 26.1
*RES
2 I145:ZN I146:A 930.5
*END

*D_NET net_73 18.4
*CONN
*I I147:ZN O
*I I148:A I
*CAP
1 I147:ZN 9.2
2 I148:A 9.2
*RES
2 I147:ZN I148:A 516
*END

*D_NET net_74 143.4
*CONN
*I I149:ZN O
*I I150:A I
*CAP
1 I149:ZN 71.7
2 I150:A 71.7
*RES
2 I149:ZN I150:A 2078.5
*END

*D_NET net_75 57
*CONN
*I I151:Z O
*I I152:A I
*CAP
1 I151:Z 28.5
2 I152:A 28.5
*RES
2 I151:Z I152:A 986.5
*END

*D_NET net_76 143.8
*CONN
*I I153:ZN O
*I I154:A I
*CAP
1 I153:ZN 71.9
2 I154:A 71.9
*RES
2 I153:ZN I154:A 14600
*END

*D_NET net_77 91.2
*CONN
*I I155:ZN O
*I I156:A I
*CAP
1 I155:ZN 45.6
2 I156:A 45.6
*RES
2 I155:ZN I156:A 1422
*END

*D_NET net_78 74
*CONN
*I I157:ZN O
*I I158:A I
*CAP
1 I157:ZN 37
2 I158:A 37
*RES
2 I157:ZN I158:A 7640
*END

*D_NET net_79 0.9
*CONN
*I I159:Z O
*I I160:A I
*CAP
1 I159:Z 0.45
2 I160:A 0.45
*RES
2 I159:Z I160:A 800
*END

*D_NET net_8 179.2
*CONN
*I I17:ZN O
*I I18:A I
*CAP
1 I17:ZN 89.6
2 I18:A 89.6
*RES
2 I17:ZN I18:A 1186
*END

*D_NET net_80 61.8
*CONN
*I I161:ZN O
*I I162:A I
*CAP
1 I161:ZN 30.9
2 I162:A 30.9
*RES
2 I161:ZN I162:A 1046.5
*END

*D_NET net_81 96.45
*CONN
*I I163:Z O
*I I164:A I
*CAP
1 I163:Z 48.225
2 I164:A 48.225
*RES
2 I163:Z I164:A 64500
*END

*D_NET net_82 139.4
*CONN
*I I165:ZN O
*I I166:A I
*CAP
1 I165:ZN 69.7
2 I166:A 69.7
*RES
2 I165:ZN I166:A 2024.5
*END

*D_NET net_83 50.8
*CONN
*I I167:ZN O
*I I168:A I
*CAP
1 I167:ZN 25.4
2 I168:A 25.4
*RES
2 I167:ZN I168:A 542
*END

*D_NET net_84 7
*CONN
*I I169:ZN O
*I I170:A I
*CAP
1 I169:ZN 3.5
2 I170:A 3.5
*RES
2 I169:ZN I170:A 325
*END

*D_NET net_85 119
*CONN
*I I171:ZN O
*I I172:A I
*CAP
1 I171:ZN 59.5
2 I172:A 59.5
*RES
2 I171:ZN I172:A 6220
*END

*D_NET net_86 89.4
*CONN
*I I173:ZN O
*I I174:A I
*CAP
1 I173:ZN 44.7
2 I174:A 44.7
*RES
2 I173:ZN I174:A 735
*END

*D_NET net_87 23
*CONN
*I I175:ZN O
*I I176:A I
*CAP
1 I175:ZN 11.5
2 I176:A 11.5
*RES
2 I175:ZN I176:A 1420
*END

*D_NET net_88 124.2
*CONN
*I I177:ZN O
*I I178:A I
*CAP
1 I177:ZN 62.1
2 I178:A 62.1
*RES
2 I177:ZN I178:A 6470
*END

*D_NET net_89 149.4
*CONN
*I I179:ZN O
*I I180:A I
*CAP
1 I179:ZN 74.7
2 I180:A 74.7
*RES
2 I179:ZN I180:A 15160
*END

*D_NET net_9 161.4
*CONN
*I I19:ZN O
*I I20:A I
*CAP
1 I19:ZN 80.7
2 I20:A 80.7
*RES
2 I19:ZN I20:A 8340
*END

*D_NET net_90 110.4
*CONN
*I I181:ZN O
*I I182:A I
*CAP
1 I181:ZN 55.2
2 I182:A 55.2
*RES
2 I181:ZN I182:A 11260
*END

*D_NET net_91 10.2
*CONN
*I I183:Z O
*I I184:A I
*CAP
1 I183:Z 5.1
2 I184:A 5.1
*RES
2 I183:Z I184:A 405.5
*END

*D_NET net_92 147
*CONN
*I I185:ZN O
*I I186:A I
*CAP
1 I185:ZN 73.5
2 I186:A 73.5
*RES
2 I185:ZN I186:A 7620
*END

*D_NET net_93 158.6
*CONN
*I I187:ZN O
*I I188:A I
*CAP
1 I187:ZN 79.3
2 I188:A 79.3
*RES
2 I187:ZN I188:A 1083
*END

*D_NET net_94 170.4
*CONN
*I I189:ZN O
*I I190:A I
*CAP
1 I189:ZN 85.2
2 I190:A 85.2
*RES
2 I189:ZN I190:A 8790
*END

*D_NET net_95 439.5
*CONN
*I I191:Z O
*I I192:A I
*CAP
1 I191:Z 219.75
2 I192:A 219.75
*RES
2 I191:Z I192:A 378.9
*END

*D_NET net_96 194.2
*CONN
*I I193:Z O
*I I194:A I
*CAP
1 I193:Z 97.1
2 I194:A 97.1
*RES
2 I193:Z I194:A 1259
*END

*D_NET net_97 178.4
*CONN
*I I195:ZN O
*I I196:A I
*CAP
1 I195:ZN 89.2
2 I196:A 89.2
*RES
2 I195:ZN I196:A 2508
*END

*D_NET net_98 186
*CONN
*I I197:Z O
*I I198:A I
*CAP
1 I197:Z 93
2 I198:A 93
*RES
2 I197:Z I198:A 2611
*END

*D_NET net_99 63.6
*CONN
*I I199:Z O
*I I200:A I
*CAP
1 I199:Z 31.8
2 I200:A 31.8
*RES
2 I199:Z I200:A 3430
*END
