*SPEF "1.0"
*DESIGN "tau2020v1"
*PROGRAM "RandomNets"
*T_UNIT 1 NS
*C_UNIT 1 FF
*R_UNIT 1 OHM

*PORTS 


*D_NET net_0 250.2
*CONN
*I I1:ZN O
*I I2:A2 I
*CAP
1 I1:ZN 125.1
2 I2:A2 125.1
*RES
2 I1:ZN I2:A2 1541
*END

*D_NET net_1 144.4
*CONN
*I I3:ZN O
*I I4:A2 I
*CAP
1 I3:ZN 72.2
2 I4:A2 72.2
*RES
2 I3:ZN I4:A2 1010
*END

*D_NET net_10 185.1
*CONN
*I I21:CO O
*I I22:A I
*CAP
1 I21:CO 92.55
2 I22:A 92.55
*RES
2 I21:CO I22:A 123600
*END

*D_NET net_11 311.8
*CONN
*I I23:GCK O
*I I24:B2 I
*CAP
1 I23:GCK 155.9
2 I24:B2 155.9
*RES
2 I23:GCK I24:B2 4179.5
*END

*D_NET net_12 195
*CONN
*I I25:Q O
*I I26:B I
*CAP
1 I25:Q 97.5
2 I26:B 97.5
*RES
2 I25:Q I26:B 330
*END

*D_NET net_13 111.4
*CONN
*I I27:Q O
*I I28:C1 I
*CAP
1 I27:Q 55.7
2 I28:C1 55.7
*RES
2 I27:Q I28:C1 1666.5
*END

*D_NET net_14 178.6
*CONN
*I I29:ZN O
*I I30:A1 I
*CAP
1 I29:ZN 89.3
2 I30:A1 89.3
*RES
2 I29:ZN I30:A1 9180
*END

*D_NET net_15 173.8
*CONN
*I I31:Z O
*I I32:B2 I
*CAP
1 I31:Z 86.9
2 I32:B2 86.9
*RES
2 I31:Z I32:B2 2450.5
*END

*D_NET net_16 836.5
*CONN
*I I33:Z O
*I I34:A1 I
*CAP
1 I33:Z 418.25
2 I34:A1 418.25
*RES
2 I33:Z I34:A1 458.3
*END

*D_NET net_17 99
*CONN
*I I35:Z O
*I I36:A I
*CAP
1 I35:Z 49.5
2 I36:A 49.5
*RES
2 I35:Z I36:A 783
*END

*D_NET net_18 186.2
*CONN
*I I37:ZN O
*I I38:CK I
*CAP
1 I37:ZN 93.1
2 I38:CK 93.1
*RES
2 I37:ZN I38:CK 18860
*END

*D_NET net_19 148
*CONN
*I I39:ZN O
*I I40:D I
*CAP
1 I39:ZN 74
2 I40:D 74
*RES
2 I39:ZN I40:D 2128
*END

*D_NET net_2 258.8
*CONN
*I I5:GCK O
*I I6:SN I
*CAP
1 I5:GCK 129.4
2 I6:SN 129.4
*RES
2 I5:GCK I6:SN 3521
*END

*D_NET net_20 110.4
*CONN
*I I41:ZN O
*I I42:A2 I
*CAP
1 I41:ZN 55.2
2 I42:A2 55.2
*RES
2 I41:ZN I42:A2 1658
*END

*D_NET net_21 228
*CONN
*I I43:ZN O
*I I44:A3 I
*CAP
1 I43:ZN 114
2 I44:A3 114
*RES
2 I43:ZN I44:A3 152200
*END

*D_NET net_22 790
*CONN
*I I45:Z O
*I I46:D I
*CAP
1 I45:Z 395
2 I46:D 395
*RES
2 I45:Z I46:D 449
*END

*D_NET net_23 118.05
*CONN
*I I47:ZN O
*I I48:A I
*CAP
1 I47:ZN 59.025
2 I48:A 59.025
*RES
2 I47:ZN I48:A 78900
*END

*D_NET net_24 363.6
*CONN
*I I49:GCK O
*I I50:A1 I
*CAP
1 I49:GCK 181.8
2 I50:A1 181.8
*RES
2 I49:GCK I50:A1 18440
*END

*D_NET net_25 67
*CONN
*I I51:Q O
*I I52:D I
*CAP
1 I51:Q 33.5
2 I52:D 33.5
*RES
2 I51:Q I52:D 1123.5
*END

*D_NET net_26 112
*CONN
*I I53:ZN O
*I I54:D I
*CAP
1 I53:ZN 56
2 I54:D 56
*RES
2 I53:ZN I54:D 314.4
*END

*D_NET net_27 257.8
*CONN
*I I55:ZN O
*I I56:A2 I
*CAP
1 I55:ZN 128.9
2 I56:A2 128.9
*RES
2 I55:ZN I56:A2 13160
*END

*D_NET net_28 239.2
*CONN
*I I57:ZN O
*I I58:C2 I
*CAP
1 I57:ZN 119.6
2 I58:C2 119.6
*RES
2 I57:ZN I58:C2 1484
*END

*D_NET net_29 105.6
*CONN
*I I59:Z O
*I I60:A3 I
*CAP
1 I59:Z 52.8
2 I60:A3 52.8
*RES
2 I59:Z I60:A3 10780
*END

*D_NET net_3 235
*CONN
*I I7:Q O
*I I8:C1 I
*CAP
1 I7:Q 117.5
2 I8:C1 117.5
*RES
2 I7:Q I8:C1 23720
*END

*D_NET net_30 165.8
*CONN
*I I61:ZN O
*I I62:A2 I
*CAP
1 I61:ZN 82.9
2 I62:A2 82.9
*RES
2 I61:ZN I62:A2 1117
*END

*D_NET net_31 69
*CONN
*I I63:ZN O
*I I64:A I
*CAP
1 I63:ZN 34.5
2 I64:A 34.5
*RES
2 I63:ZN I64:A 46200
*END

*D_NET net_32 190.4
*CONN
*I I65:Q O
*I I66:B I
*CAP
1 I65:Q 95.2
2 I66:B 95.2
*RES
2 I65:Q I66:B 9790
*END

*D_NET net_33 143.8
*CONN
*I I67:ZN O
*I I68:A2 I
*CAP
1 I67:ZN 71.9
2 I68:A2 71.9
*RES
2 I67:ZN I68:A2 2083.5
*END

*D_NET net_34 91.6
*CONN
*I I69:ZN O
*I I70:A I
*CAP
1 I69:ZN 45.8
2 I70:A 45.8
*RES
2 I69:ZN I70:A 1419
*END

*D_NET net_35 655
*CONN
*I I71:GCK O
*I I72:E I
*CAP
1 I71:GCK 327.5
2 I72:E 327.5
*RES
2 I71:GCK I72:E 422
*END

*D_NET net_36 38.4
*CONN
*I I73:ZN O
*I I74:A2 I
*CAP
1 I73:ZN 19.2
2 I74:A2 19.2
*RES
2 I73:ZN I74:A2 2180
*END

*D_NET net_37 131.8
*CONN
*I I75:ZN O
*I I76:CK I
*CAP
1 I75:ZN 65.9
2 I76:CK 65.9
*RES
2 I75:ZN I76:CK 1925.5
*END

*D_NET net_38 305
*CONN
*I I77:ZN O
*I I78:A3 I
*CAP
1 I77:ZN 152.5
2 I78:A3 152.5
*RES
2 I77:ZN I78:A3 15500
*END

*D_NET net_39 397.8
*CONN
*I I79:ZN O
*I I80:A1 I
*CAP
1 I79:ZN 198.9
2 I80:A1 198.9
*RES
2 I79:ZN I80:A1 5258.5
*END

*D_NET net_4 302.6
*CONN
*I I10:A1 I
*I I9:ZN O
*CAP
1 I9:ZN 151.3
2 I10:A1 151.3
*RES
2 I9:ZN I10:A1 30480
*END

*D_NET net_40 90
*CONN
*I I81:ZN O
*I I82:D I
*CAP
1 I81:ZN 45
2 I82:D 45
*RES
2 I81:ZN I82:D 4770
*END

*D_NET net_41 676
*CONN
*I I83:ZN O
*I I84:A1 I
*CAP
1 I83:ZN 338
2 I84:A1 338
*RES
2 I83:ZN I84:A1 427.2
*END

*D_NET net_42 391.8
*CONN
*I I85:ZN O
*I I86:D I
*CAP
1 I85:ZN 195.9
2 I86:D 195.9
*RES
2 I85:ZN I86:D 5175.5
*END

*D_NET net_43 226.8
*CONN
*I I87:ZN O
*I I88:A2 I
*CAP
1 I87:ZN 113.4
2 I88:A2 113.4
*RES
2 I87:ZN I88:A2 11610
*END

*D_NET net_44 183.8
*CONN
*I I89:ZN O
*I I90:A2 I
*CAP
1 I89:ZN 91.9
2 I90:A2 91.9
*RES
2 I89:ZN I90:A2 2583.5
*END

*D_NET net_45 318.6
*CONN
*I I91:ZN O
*I I92:A I
*CAP
1 I91:ZN 159.3
2 I92:A 159.3
*RES
2 I91:ZN I92:A 1883
*END

*D_NET net_46 386.8
*CONN
*I I93:Z O
*I I94:GN I
*CAP
1 I93:Z 193.4
2 I94:GN 193.4
*RES
2 I93:Z I94:GN 5113
*END

*D_NET net_47 213.4
*CONN
*I I95:Z O
*I I96:A I
*CAP
1 I95:Z 106.7
2 I96:A 106.7
*RES
2 I95:Z I96:A 10940
*END

*D_NET net_48 297
*CONN
*I I97:CO O
*I I98:C1 I
*CAP
1 I97:CO 148.5
2 I98:C1 148.5
*RES
2 I97:CO I98:C1 15120
*END

*D_NET net_49 17.8
*CONN
*I I100:D I
*I I99:ZN O
*CAP
1 I99:ZN 8.9
2 I100:D 8.9
*RES
2 I99:ZN I100:D 379
*END

*D_NET net_5 141.4
*CONN
*I I11:Q O
*I I12:B1 I
*CAP
1 I11:Q 70.7
2 I12:B1 70.7
*RES
2 I11:Q I12:B1 7320
*END

*D_NET net_50 85.4
*CONN
*I I101:ZN O
*I I102:SE I
*CAP
1 I101:ZN 42.7
2 I102:SE 42.7
*RES
2 I101:ZN I102:SE 1353.5
*END

*D_NET net_51 483
*CONN
*I I103:Q O
*I I104:GN I
*CAP
1 I103:Q 241.5
2 I104:GN 241.5
*RES
2 I103:Q I104:GN 388.6
*END

*D_NET net_52 869
*CONN
*I I105:ZN O
*I I106:B2 I
*CAP
1 I105:ZN 434.5
2 I106:B2 434.5
*RES
2 I105:ZN I106:B2 464.8
*END

*D_NET net_53 287.4
*CONN
*I I107:ZN O
*I I108:A I
*CAP
1 I107:ZN 143.7
2 I108:A 143.7
*RES
2 I107:ZN I108:A 14620
*END

*D_NET net_54 99
*CONN
*I I109:Q O
*I I110:SN I
*CAP
1 I109:Q 49.5
2 I110:SN 49.5
*RES
2 I109:Q I110:SN 5220
*END

*D_NET net_55 164.6
*CONN
*I I111:ZN O
*I I112:A I
*CAP
1 I111:ZN 82.3
2 I112:A 82.3
*RES
2 I111:ZN I112:A 8500
*END

*D_NET net_56 72.2
*CONN
*I I113:ZN O
*I I114:EN I
*CAP
1 I113:ZN 36.1
2 I114:EN 36.1
*RES
2 I113:ZN I114:EN 3870
*END

*D_NET net_57 784.5
*CONN
*I I115:ZN O
*I I116:D I
*CAP
1 I115:ZN 392.25
2 I116:D 392.25
*RES
2 I115:ZN I116:D 448.9
*END

*D_NET net_58 97
*CONN
*I I117:ZN O
*I I118:A I
*CAP
1 I117:ZN 48.5
2 I118:A 48.5
*RES
2 I117:ZN I118:A 9920
*END

*D_NET net_59 2.2
*CONN
*I I119:ZN O
*I I120:A2 I
*CAP
1 I119:ZN 1.1
2 I120:A2 1.1
*RES
2 I119:ZN I120:A2 301
*END

*D_NET net_6 355.5
*CONN
*I I13:Z O
*I I14:B2 I
*CAP
1 I13:Z 177.75
2 I14:B2 177.75
*RES
2 I13:Z I14:B2 362.1
*END

*D_NET net_60 342.2
*CONN
*I I121:Q O
*I I122:A2 I
*CAP
1 I121:Q 171.1
2 I122:A2 171.1
*RES
2 I121:Q I122:A2 4555.5
*END

*D_NET net_61 4.2
*CONN
*I I123:ZN O
*I I124:B2 I
*CAP
1 I123:ZN 2.1
2 I124:B2 2.1
*RES
2 I123:ZN I124:B2 640
*END

*D_NET net_62 270.2
*CONN
*I I125:ZN O
*I I126:A2 I
*CAP
1 I125:ZN 135.1
2 I126:A2 135.1
*RES
2 I125:ZN I126:A2 27240
*END

*D_NET net_63 170
*CONN
*I I127:ZN O
*I I128:B1 I
*CAP
1 I127:ZN 85
2 I128:B1 85
*RES
2 I127:ZN I128:B1 8750
*END

*D_NET net_64 567.5
*CONN
*I I129:ZN O
*I I130:C1 I
*CAP
1 I129:ZN 283.75
2 I130:C1 283.75
*RES
2 I129:ZN I130:C1 405.5
*END

*D_NET net_65 31.4
*CONN
*I I131:ZN O
*I I132:A4 I
*CAP
1 I131:ZN 15.7
2 I132:A4 15.7
*RES
2 I131:ZN I132:A4 674.5
*END

*D_NET net_66 43.6
*CONN
*I I133:ZN O
*I I134:A2 I
*CAP
1 I133:ZN 21.8
2 I134:A2 21.8
*RES
2 I133:ZN I134:A2 827
*END

*D_NET net_67 198
*CONN
*I I135:ZN O
*I I136:D I
*CAP
1 I135:ZN 99
2 I136:D 99
*RES
2 I135:ZN I136:D 330.6
*END

*D_NET net_68 284
*CONN
*I I137:ZN O
*I I138:A2 I
*CAP
1 I137:ZN 142
2 I138:A2 142
*RES
2 I137:ZN I138:A2 1710
*END

*D_NET net_69 265.6
*CONN
*I I139:ZN O
*I I140:B1 I
*CAP
1 I139:ZN 132.8
2 I140:B1 132.8
*RES
2 I139:ZN I140:B1 3594
*END

*D_NET net_7 127
*CONN
*I I15:ZN O
*I I16:D I
*CAP
1 I15:ZN 63.5
2 I16:D 63.5
*RES
2 I15:ZN I16:D 12920
*END

*D_NET net_70 207.6
*CONN
*I I141:CO O
*I I142:A I
*CAP
1 I141:CO 103.8
2 I142:A 103.8
*RES
2 I141:CO I142:A 20980
*END

*D_NET net_71 104.2
*CONN
*I I143:Q O
*I I144:B I
*CAP
1 I143:Q 52.1
2 I144:B 52.1
*RES
2 I143:Q I144:B 1588.5
*END

*D_NET net_72 117.8
*CONN
*I I145:Q O
*I I146:A I
*CAP
1 I145:Q 58.9
2 I146:A 58.9
*RES
2 I145:Q I146:A 12000
*END

*D_NET net_73 60
*CONN
*I I147:ZN O
*I I148:E I
*CAP
1 I147:ZN 30
2 I148:E 30
*RES
2 I147:ZN I148:E 1032
*END

*D_NET net_74 19.2
*CONN
*I I149:Z O
*I I150:A2 I
*CAP
1 I149:Z 9.6
2 I150:A2 9.6
*RES
2 I149:Z I150:A2 1230
*END

*D_NET net_75 334.4
*CONN
*I I151:ZN O
*I I152:C1 I
*CAP
1 I151:ZN 167.2
2 I152:C1 167.2
*RES
2 I151:ZN I152:C1 1962
*END

*D_NET net_76 358
*CONN
*I I153:ZN O
*I I154:B1 I
*CAP
1 I153:ZN 179
2 I154:B1 179
*RES
2 I153:ZN I154:B1 362.6
*END

*D_NET net_77 394.8
*CONN
*I I155:Q O
*I I156:A2 I
*CAP
1 I155:Q 197.4
2 I156:A2 197.4
*RES
2 I155:Q I156:A2 5221
*END

*D_NET net_78 304.6
*CONN
*I I157:ZN O
*I I158:A I
*CAP
1 I157:ZN 152.3
2 I158:A 152.3
*RES
2 I157:ZN I158:A 4089.5
*END

*D_NET net_79 102.2
*CONN
*I I159:ZN O
*I I160:A I
*CAP
1 I159:ZN 51.1
2 I160:A 51.1
*RES
2 I159:ZN I160:A 10440
*END

*D_NET net_8 399.8
*CONN
*I I17:Q O
*I I18:A3 I
*CAP
1 I17:Q 199.9
2 I18:A3 199.9
*RES
2 I17:Q I18:A3 2289
*END

*D_NET net_80 158.1
*CONN
*I I161:ZN O
*I I162:SI I
*CAP
1 I161:ZN 79.05
2 I162:SI 79.05
*RES
2 I161:ZN I162:SI 105600
*END

*D_NET net_81 86.6
*CONN
*I I163:ZN O
*I I164:A1 I
*CAP
1 I163:ZN 43.3
2 I164:A1 43.3
*RES
2 I163:ZN I164:A1 4590
*END

*D_NET net_82 28
*CONN
*I I165:ZN O
*I I166:CK I
*CAP
1 I165:ZN 14
2 I166:CK 14
*RES
2 I165:ZN I166:CK 1670
*END

*D_NET net_83 101.6
*CONN
*I I167:ZN O
*I I168:SN I
*CAP
1 I167:ZN 50.8
2 I168:SN 50.8
*RES
2 I167:ZN I168:SN 5350
*END

*D_NET net_84 391.4
*CONN
*I I169:GCK O
*I I170:SN I
*CAP
1 I169:GCK 195.7
2 I170:SN 195.7
*RES
2 I169:GCK I170:SN 39380
*END

*D_NET net_85 285.8
*CONN
*I I171:Z O
*I I172:SI I
*CAP
1 I171:Z 142.9
2 I172:SI 142.9
*RES
2 I171:Z I172:SI 28820
*END

*D_NET net_86 595.5
*CONN
*I I173:Q O
*I I174:B I
*CAP
1 I173:Q 297.75
2 I174:B 297.75
*RES
2 I173:Q I174:B 410.1
*END

*D_NET net_87 51
*CONN
*I I175:Z O
*I I176:C1 I
*CAP
1 I175:Z 25.5
2 I176:C1 25.5
*RES
2 I175:Z I176:C1 545
*END

*D_NET net_88 58.4
*CONN
*I I177:ZN O
*I I178:A3 I
*CAP
1 I177:ZN 29.2
2 I178:A3 29.2
*RES
2 I177:ZN I178:A3 1012
*END

*D_NET net_89 330.2
*CONN
*I I179:Z O
*I I180:B1 I
*CAP
1 I179:Z 165.1
2 I180:B1 165.1
*RES
2 I179:Z I180:B1 4405.5
*END

*D_NET net_9 789.5
*CONN
*I I19:ZN O
*I I20:D I
*CAP
1 I19:ZN 394.75
2 I20:D 394.75
*RES
2 I19:ZN I20:D 448.9
*END

*D_NET net_90 232.2
*CONN
*I I181:ZN O
*I I182:A I
*CAP
1 I181:ZN 116.1
2 I182:A 116.1
*RES
2 I181:ZN I182:A 11880
*END

*D_NET net_91 374.4
*CONN
*I I183:ZN O
*I I184:B1 I
*CAP
1 I183:ZN 187.2
2 I184:B1 187.2
*RES
2 I183:ZN I184:B1 2162
*END

*D_NET net_92 77.6
*CONN
*I I185:Q O
*I I186:EN I
*CAP
1 I185:Q 38.8
2 I186:EN 38.8
*RES
2 I185:Q I186:EN 7980
*END

*D_NET net_93 379.6
*CONN
*I I187:ZN O
*I I188:A3 I
*CAP
1 I187:ZN 189.8
2 I188:A3 189.8
*RES
2 I187:ZN I188:A3 2186
*END

*D_NET net_94 310
*CONN
*I I189:ZN O
*I I190:A I
*CAP
1 I189:ZN 155
2 I190:A 155
*RES
2 I189:ZN I190:A 4149
*END

*D_NET net_95 359.8
*CONN
*I I191:ZN O
*I I192:OE I
*CAP
1 I191:ZN 179.9
2 I192:OE 179.9
*RES
2 I191:ZN I192:OE 4771.5
*END

*D_NET net_96 177.2
*CONN
*I I193:ZN O
*I I194:A2 I
*CAP
1 I193:ZN 88.6
2 I194:A2 88.6
*RES
2 I193:ZN I194:A2 2501
*END

*D_NET net_97 157.8
*CONN
*I I195:ZN O
*I I196:A2 I
*CAP
1 I195:ZN 78.9
2 I196:A2 78.9
*RES
2 I195:ZN I196:A2 2246.5
*END

*D_NET net_98 112.4
*CONN
*I I197:ZN O
*I I198:CK I
*CAP
1 I197:ZN 56.2
2 I198:CK 56.2
*RES
2 I197:ZN I198:CK 850
*END

*D_NET net_99 273.9
*CONN
*I I199:ZN O
*I I200:A3 I
*CAP
1 I199:ZN 136.95
2 I200:A3 136.95
*RES
2 I199:ZN I200:A3 182800
*END
